@<TRIPOS>MOLECULE
*****
 41 46 0 0 0
SMALL
GASTEIGER

@<TRIPOS>ATOM
      1 C         143.7571  139.8267  159.2267 C.3     1  UNL1        0.0747
      2 C         143.4871  141.2393  158.8005 C.3     1  UNL1        0.0369
      3 C         143.5689  142.3534  159.8015 C.3     1  UNL1        0.0741
      4 N         143.9207  142.0549  161.2289 N.3     1  UNL1       -0.2689
      5 C         144.1907  140.6423  161.6551 C.3     1  UNL1        0.0741
      6 C         144.1088  139.5282  160.6540 C.3     1  UNL1        0.0369
      7 O         141.2212  138.2493  158.9418 O.2     1  UNL1       -0.2668
      8 C         142.4073  137.9239  158.0832 C.2     1  UNL1        0.2806
      9 N         143.6753  138.7127  158.2257 N.am    1  UNL1       -0.2999
     10 H         144.4538  138.4991  157.6622 H       1  UNL1        0.1498
     11 C         142.3256  136.8098  157.0821 C.ar    1  UNL1        0.2014
     12 C         141.3544  136.8956  155.9422 C.ar    1  UNL1        0.0843
     13 C         141.2726  135.7816  154.9412 C.ar    1  UNL1        0.2018
     14 O         140.3014  135.8673  153.8012 O.2     1  UNL1       -0.2864
     15 C         142.1620  134.5817  155.0800 C.ar    1  UNL1        0.0737
     16 C         142.0802  133.4676  154.0789 C.ar    1  UNL1        0.0085
     17 C         142.9697  132.2678  154.2178 C.ar    1  UNL1        0.0299
     18 C         143.9409  132.1820  155.3577 C.ar    1  UNL1        0.1432
     19 F         144.8303  130.9821  155.4965 F       1  UNL1       -0.2041
     20 C         144.0226  133.2960  156.3587 C.ar    1  UNL1        0.0672
     21 C         143.1332  134.4959  156.2199 C.ar    1  UNL1        0.1508
     22 O         143.2150  135.6100  157.2210 O.2     1  UNL1       -0.4486
     23 C         144.0025  143.1690  162.2299 C.3     1  UNL1        0.0992
     24 C         142.7587  143.6584  162.9107 C.ar    1  UNL1       -0.0037
     25 C         142.3235  143.0454  164.2087 C.ar    1  UNL1        0.0003
     26 C         141.0797  143.5348  164.8896 C.ar    1  UNL1        0.0390
     27 C         140.2712  144.6371  164.2724 C.ar    1  UNL1        0.1658
     28 C         140.7063  145.2501  162.9744 C.ar    1  UNL1        0.1735
     29 F         139.8977  146.3525  162.3572 F       1  UNL1       -0.2010
     30 C         141.9501  144.7607  162.2936 C.ar    1  UNL1        0.0299
     31 O         139.0274  145.1265  164.9532 O.3     1  UNL1       -0.4731
     32 C         137.7362  144.3828  164.7814 C.3     1  UNL1        0.2070
     33 C         137.5200  143.5254  163.5697 C.3     1  UNL1        0.0646
     34 C         137.3503  142.0426  163.7207 C.3     1  UNL1        0.0759
     35 N         138.5527  141.1458  163.7157 N.3     1  UNL1       -0.2751
     36 C         139.4912  141.1562  162.5456 C.3     1  UNL1        0.0575
     37 C         139.9801  141.7919  161.2781 C.3     1  UNL1        0.0173
     38 C         140.6279  140.5383  161.7866 C.3     1  UNL1        0.0173
     39 C         138.8165  140.2386  164.8808 C.3     1  UNL1        0.0575
     40 C         139.7491  139.7083  165.9292 C.3     1  UNL1        0.0173
     41 C         138.3409  139.1976  165.8503 C.3     1  UNL1        0.0173
@<TRIPOS>BOND
     1     7     8    2
     2     8     9   am
     3     9     1    1
     4     1     2    1
     5     2     3    1
     6     3     4    1
     7     4    23    1
     8    23    24    1
     9    24    25   ar
    10    25    26   ar
    11    26    27   ar
    12    27    31    1
    13    31    32    1
    14    32    33    1
    15    33    34    1
    16    34    35    1
    17    35    36    1
    18    36    37    1
    19    37    38    1
    20    35    39    1
    21    39    40    1
    22    40    41    1
    23    27    28   ar
    24    28    29    1
    25    28    30   ar
    26     4     5    1
    27     5     6    1
    28     8    11    1
    29    11    12   ar
    30    12    13   ar
    31    13    14    2
    32    13    15   ar
    33    15    16   ar
    34    16    17   ar
    35    17    18   ar
    36    18    19    1
    37    18    20   ar
    38    20    21   ar
    39    21    22   ar
    40     6     1    1
    41    22    11   ar
    42    30    24   ar
    43    21    15   ar
    44    38    36    1
    45    41    39    1
    46     9    10    1
@<TRIPOS>MOLECULE
*****
 41 46 0 0 0
SMALL
GASTEIGER

@<TRIPOS>ATOM
      1 C         143.6930  139.7758  159.2167 C.3     1  UNL1        0.0747
      2 C         144.0775  139.4163  160.6214 C.3     1  UNL1        0.0369
      3 C         144.2026  140.4888  161.6625 C.3     1  UNL1        0.0741
      4 N         143.9432  141.9209  161.2990 N.3     1  UNL1       -0.2689
      5 C         143.5587  142.2803  159.8944 C.3     1  UNL1        0.0741
      6 C         143.4336  141.2077  158.8532 C.3     1  UNL1        0.0369
      7 O         141.1141  138.2735  158.9130 O.2     1  UNL1       -0.2668
      8 C         142.2785  137.9521  158.0238 C.2     1  UNL1        0.2806
      9 N         143.5679  138.7032  158.1756 N.am    1  UNL1       -0.2999
     10 H         144.3322  138.4923  157.5919 H       1  UNL1        0.1498
     11 C         142.1534  136.8795  156.9826 C.ar    1  UNL1        0.2014
     12 C         141.1654  137.0315  155.8642 C.ar    1  UNL1        0.0843
     13 C         141.0403  135.9590  154.8230 C.ar    1  UNL1        0.2018
     14 O         140.0523  136.1109  153.7047 O.2     1  UNL1       -0.2864
     15 C         141.9033  134.7345  154.9002 C.ar    1  UNL1        0.0737
     16 C         141.7782  133.6620  153.8590 C.ar    1  UNL1        0.0085
     17 C         142.6412  132.4375  153.9362 C.ar    1  UNL1        0.0299
     18 C         143.6292  132.2856  155.0545 C.ar    1  UNL1        0.1432
     19 F         144.4922  131.0611  155.1317 F       1  UNL1       -0.2041
     20 C         143.7543  133.3581  156.0957 C.ar    1  UNL1        0.0672
     21 C         142.8913  134.5825  156.0185 C.ar    1  UNL1        0.1508
     22 O         143.0164  135.6551  157.0597 O.2     1  UNL1       -0.4486
     23 C         144.0682  142.9934  162.3402 C.3     1  UNL1        0.0992
     24 C         142.8426  143.5178  163.0277 C.ar    1  UNL1       -0.0037
     25 C         142.0962  144.6816  162.4459 C.ar    1  UNL1        0.0003
     26 C         140.8705  145.2060  163.1334 C.ar    1  UNL1        0.0390
     27 C         140.3913  144.5667  164.4029 C.ar    1  UNL1        0.1658
     28 C         141.1376  143.4030  164.9847 C.ar    1  UNL1        0.1735
     29 F         140.6584  142.7636  166.2543 F       1  UNL1       -0.2010
     30 C         142.3633  142.8785  164.2972 C.ar    1  UNL1        0.0299
     31 O         139.1656  145.0911  165.0904 O.3     1  UNL1       -0.4731
     32 C         137.8399  144.4242  164.8721 C.3     1  UNL1        0.2070
     33 C         137.5706  143.6921  163.5909 C.3     1  UNL1        0.0646
     34 C         137.3484  142.2087  163.6072 C.3     1  UNL1        0.0759
     35 N         138.5219  141.2745  163.6079 N.3     1  UNL1       -0.2751
     36 C         138.7458  140.3523  164.7695 C.3     1  UNL1        0.0575
     37 C         139.6722  139.7137  165.7614 C.3     1  UNL1        0.0173
     38 C         138.2070  139.3935  165.7895 C.3     1  UNL1        0.0173
     39 C         139.4717  141.2625  162.4469 C.3     1  UNL1        0.0575
     40 C         139.9819  141.8818  161.1795 C.3     1  UNL1        0.0173
     41 C         140.6064  140.6226  161.7034 C.3     1  UNL1        0.0173
@<TRIPOS>BOND
     1     7     8    2
     2     8     9   am
     3     9     1    1
     4     1     2    1
     5     2     3    1
     6     3     4    1
     7     4    23    1
     8    23    24    1
     9    24    25   ar
    10    25    26   ar
    11    26    27   ar
    12    27    31    1
    13    31    32    1
    14    32    33    1
    15    33    34    1
    16    34    35    1
    17    35    36    1
    18    36    37    1
    19    37    38    1
    20    35    39    1
    21    39    40    1
    22    40    41    1
    23    27    28   ar
    24    28    29    1
    25    28    30   ar
    26     4     5    1
    27     5     6    1
    28     8    11    1
    29    11    12   ar
    30    12    13   ar
    31    13    14    2
    32    13    15   ar
    33    15    16   ar
    34    16    17   ar
    35    17    18   ar
    36    18    19    1
    37    18    20   ar
    38    20    21   ar
    39    21    22   ar
    40     6     1    1
    41    22    11   ar
    42    30    24   ar
    43    21    15   ar
    44    38    36    1
    45    41    39    1
    46     9    10    1
@<TRIPOS>MOLECULE
*****
 41 46 0 0 0
SMALL
GASTEIGER

@<TRIPOS>ATOM
      1 C         143.6505  139.8423  160.0850 C.3     1  UNL1        0.0747
      2 C         143.8192  139.4318  161.5179 C.3     1  UNL1        0.0369
      3 C         143.8916  140.4749  162.5933 C.3     1  UNL1        0.0741
      4 N         143.7953  141.9286  162.2359 N.3     1  UNL1       -0.2689
      5 C         143.6266  142.3391  160.8030 C.3     1  UNL1        0.0741
      6 C         143.5542  141.2958  159.7276 C.3     1  UNL1        0.0369
      7 O         141.0471  138.4727  159.4964 O.2     1  UNL1       -0.2668
      8 C         142.2764  138.1144  158.7153 C.2     1  UNL1        0.2806
      9 N         143.5782  138.7991  159.0096 N.am    1  UNL1       -0.2999
     10 H         144.3850  138.5639  158.4969 H       1  UNL1        0.1498
     11 C         142.2041  137.0712  157.6398 C.ar    1  UNL1        0.2014
     12 C         141.2080  137.2093  156.5268 C.ar    1  UNL1        0.0843
     13 C         141.1357  136.1662  155.4513 C.ar    1  UNL1        0.2018
     14 O         140.1396  136.3043  154.3383 O.2     1  UNL1       -0.2864
     15 C         142.0594  134.9849  155.4888 C.ar    1  UNL1        0.0737
     16 C         141.9871  133.9418  154.4133 C.ar    1  UNL1        0.0085
     17 C         142.9108  132.7606  154.4509 C.ar    1  UNL1        0.0299
     18 C         143.9069  132.6225  155.5639 C.ar    1  UNL1        0.1432
     19 F         144.8306  131.4412  155.6013 F       1  UNL1       -0.2041
     20 C         143.9792  133.6656  156.6393 C.ar    1  UNL1        0.0672
     21 C         143.0555  134.8468  156.6018 C.ar    1  UNL1        0.1508
     22 O         143.1278  135.8900  157.6773 O.2     1  UNL1       -0.4486
     23 C         143.8676  142.9717  163.3113 C.3     1  UNL1        0.0992
     24 C         143.0615  142.8124  164.5662 C.ar    1  UNL1       -0.0037
     25 C         143.7369  142.4195  165.8467 C.ar    1  UNL1        0.0003
     26 C         142.9308  142.2602  167.1016 C.ar    1  UNL1        0.0390
     27 C         141.4493  142.4936  167.0761 C.ar    1  UNL1        0.1658
     28 C         140.7740  142.8865  165.7957 C.ar    1  UNL1        0.1735
     29 F         139.2924  143.1199  165.7701 F       1  UNL1       -0.2010
     30 C         141.5801  143.0458  164.5407 C.ar    1  UNL1        0.0299
     31 O         140.6432  142.3343  168.3310 O.3     1  UNL1       -0.4731
     32 C         139.9172  141.0491  168.5979 C.3     1  UNL1        0.2070
     33 C         140.0836  139.8861  167.6654 C.3     1  UNL1        0.0646
     34 C         139.0171  139.5742  166.6576 C.3     1  UNL1        0.0759
     35 N         139.3904  139.3014  165.2306 N.3     1  UNL1       -0.2751
     36 C         138.5984  139.9196  164.1169 C.3     1  UNL1        0.0575
     37 C         137.7307  141.0285  163.6000 C.3     1  UNL1        0.0173
     38 C         138.0943  139.8813  162.7046 C.3     1  UNL1        0.0173
     39 C         140.5559  138.4104  164.9175 C.3     1  UNL1        0.0575
     40 C         142.0373  138.1906  164.8335 C.3     1  UNL1        0.0173
     41 C         141.0929  137.0871  164.4590 C.3     1  UNL1        0.0173
@<TRIPOS>BOND
     1     7     8    2
     2     8     9   am
     3     9     1    1
     4     1     2    1
     5     2     3    1
     6     3     4    1
     7     4    23    1
     8    23    24    1
     9    24    25   ar
    10    25    26   ar
    11    26    27   ar
    12    27    31    1
    13    31    32    1
    14    32    33    1
    15    33    34    1
    16    34    35    1
    17    35    36    1
    18    36    37    1
    19    37    38    1
    20    35    39    1
    21    39    40    1
    22    40    41    1
    23    27    28   ar
    24    28    29    1
    25    28    30   ar
    26     4     5    1
    27     5     6    1
    28     8    11    1
    29    11    12   ar
    30    12    13   ar
    31    13    14    2
    32    13    15   ar
    33    15    16   ar
    34    16    17   ar
    35    17    18   ar
    36    18    19    1
    37    18    20   ar
    38    20    21   ar
    39    21    22   ar
    40     6     1    1
    41    22    11   ar
    42    30    24   ar
    43    21    15   ar
    44    38    36    1
    45    41    39    1
    46     9    10    1
@<TRIPOS>MOLECULE
*****
 41 46 0 0 0
SMALL
GASTEIGER

@<TRIPOS>ATOM
      1 C         143.6565  139.8848  160.0906 C.3     1  UNL1        0.0747
      2 C         143.3122  141.3182  159.8134 C.3     1  UNL1        0.0369
      3 C         143.4047  142.3374  160.9100 C.3     1  UNL1        0.0741
      4 N         143.8415  141.9232  162.2840 N.3     1  UNL1       -0.2689
      5 C         144.1858  140.4898  162.5612 C.3     1  UNL1        0.0741
      6 C         144.0933  139.4706  161.4645 C.3     1  UNL1        0.0369
      7 O         141.0829  138.4165  159.6206 O.2     1  UNL1       -0.2668
      8 C         142.2771  138.1315  158.7590 C.2     1  UNL1        0.2806
      9 N         143.5639  138.8656  158.9940 N.am    1  UNL1       -0.2999
     10 H         144.3478  138.6785  158.4285 H       1  UNL1        0.1498
     11 C         142.1846  137.1122  157.6623 C.ar    1  UNL1        0.2014
     12 C         141.1826  137.2859  156.5596 C.ar    1  UNL1        0.0843
     13 C         141.0901  136.2667  155.4630 C.ar    1  UNL1        0.2018
     14 O         140.0881  136.4404  154.3603 O.2     1  UNL1       -0.2864
     15 C         141.9996  135.0739  155.4689 C.ar    1  UNL1        0.0737
     16 C         141.9071  134.0547  154.3722 C.ar    1  UNL1        0.0085
     17 C         142.8166  132.8619  154.3782 C.ar    1  UNL1        0.0299
     18 C         143.8185  132.6883  155.4809 C.ar    1  UNL1        0.1432
     19 F         144.7280  131.4954  155.4869 F       1  UNL1       -0.2041
     20 C         143.9111  133.7074  156.5776 C.ar    1  UNL1        0.0672
     21 C         143.0016  134.9002  156.5716 C.ar    1  UNL1        0.1508
     22 O         143.0941  135.9195  157.6683 O.2     1  UNL1       -0.4486
     23 C         143.9341  142.9424  163.3806 C.3     1  UNL1        0.0992
     24 C         143.0628  142.8183  164.5953 C.ar    1  UNL1       -0.0037
     25 C         141.5955  143.1145  164.4992 C.ar    1  UNL1        0.0003
     26 C         140.7242  142.9904  165.7139 C.ar    1  UNL1        0.0390
     27 C         141.3201  142.5702  167.0246 C.ar    1  UNL1        0.1658
     28 C         142.7874  142.2741  167.1207 C.ar    1  UNL1        0.1735
     29 F         143.3835  141.8539  168.4316 F       1  UNL1       -0.2010
     30 C         143.6588  142.3981  165.9061 C.ar    1  UNL1        0.0299
     31 O         140.4488  142.4462  168.2393 O.3     1  UNL1       -0.4731
     32 C         139.9845  141.0944  168.6943 C.3     1  UNL1        0.2070
     33 C         140.1305  139.9073  167.7892 C.3     1  UNL1        0.0646
     34 C         139.0843  139.6210  166.7530 C.3     1  UNL1        0.0759
     35 N         139.4560  139.5919  165.3000 N.3     1  UNL1       -0.2751
     36 C         140.6937  138.8697  164.8568 C.3     1  UNL1        0.0575
     37 C         142.0509  138.3094  165.1635 C.3     1  UNL1        0.0173
     38 C         141.4804  138.1792  163.7824 C.3     1  UNL1        0.0173
     39 C         138.5900  140.2851  164.2903 C.3     1  UNL1        0.0575
     40 C         137.7662  141.4697  163.8802 C.3     1  UNL1        0.0173
     41 C         137.9137  140.3010  162.9515 C.3     1  UNL1        0.0173
@<TRIPOS>BOND
     1     7     8    2
     2     8     9   am
     3     9     1    1
     4     1     2    1
     5     2     3    1
     6     3     4    1
     7     4    23    1
     8    23    24    1
     9    24    25   ar
    10    25    26   ar
    11    26    27   ar
    12    27    31    1
    13    31    32    1
    14    32    33    1
    15    33    34    1
    16    34    35    1
    17    35    36    1
    18    36    37    1
    19    37    38    1
    20    35    39    1
    21    39    40    1
    22    40    41    1
    23    27    28   ar
    24    28    29    1
    25    28    30   ar
    26     4     5    1
    27     5     6    1
    28     8    11    1
    29    11    12   ar
    30    12    13   ar
    31    13    14    2
    32    13    15   ar
    33    15    16   ar
    34    16    17   ar
    35    17    18   ar
    36    18    19    1
    37    18    20   ar
    38    20    21   ar
    39    21    22   ar
    40     6     1    1
    41    22    11   ar
    42    30    24   ar
    43    21    15   ar
    44    38    36    1
    45    41    39    1
    46     9    10    1
@<TRIPOS>MOLECULE
*****
 41 46 0 0 0
SMALL
GASTEIGER

@<TRIPOS>ATOM
      1 C         138.6791  142.1008  159.8740 C.3     1  UNL1        0.0747
      2 C         138.0616  142.4574  161.1936 C.3     1  UNL1        0.0369
      3 C         137.9817  141.4324  162.2858 C.3     1  UNL1        0.0741
      4 N         138.5194  140.0506  162.0583 N.3     1  UNL1       -0.2689
      5 C         139.1369  139.6940  160.7387 C.3     1  UNL1        0.0741
      6 C         139.2168  140.7191  159.6465 C.3     1  UNL1        0.0369
      7 O         141.2461  143.5741  159.3843 O.2     1  UNL1       -0.2668
      8 C         140.0425  143.8625  158.5370 C.2     1  UNL1        0.2806
      9 N         138.7590  143.1258  158.7818 N.am    1  UNL1       -0.2999
     10 H         137.9690  143.3151  158.2257 H       1  UNL1        0.1498
     11 C         140.1223  144.8876  157.4448 C.ar    1  UNL1        0.2014
     12 C         140.9568  144.6224  156.2269 C.ar    1  UNL1        0.0843
     13 C         141.0367  145.6474  155.1347 C.ar    1  UNL1        0.2018
     14 O         141.8712  145.3823  153.9168 O.2     1  UNL1       -0.2864
     15 C         140.2820  146.9377  155.2603 C.ar    1  UNL1        0.0737
     16 C         140.3618  147.9627  154.1681 C.ar    1  UNL1        0.0085
     17 C         139.6071  149.2529  154.2938 C.ar    1  UNL1        0.0299
     18 C         138.7726  149.5180  155.5117 C.ar    1  UNL1        0.1432
     19 F         138.0179  150.8083  155.6374 F       1  UNL1       -0.2041
     20 C         138.6927  148.4930  156.6039 C.ar    1  UNL1        0.0672
     21 C         139.4474  147.2029  156.4782 C.ar    1  UNL1        0.1508
     22 O         139.3676  146.1778  157.5705 O.2     1  UNL1       -0.4486
     23 C         138.4396  139.0256  163.1505 C.3     1  UNL1        0.0992
     24 C         139.1800  139.2412  164.4371 C.ar    1  UNL1       -0.0037
     25 C         138.4620  139.7949  165.6319 C.ar    1  UNL1        0.0003
     26 C         139.2024  140.0106  166.9185 C.ar    1  UNL1        0.0390
     27 C         140.6609  139.6724  167.0102 C.ar    1  UNL1        0.1658
     28 C         141.3789  139.1186  165.8154 C.ar    1  UNL1        0.1735
     29 F         142.8374  138.7804  165.9070 F       1  UNL1       -0.2010
     30 C         140.6385  138.9030  164.5288 C.ar    1  UNL1        0.0299
     31 O         141.4013  139.8880  168.2968 O.3     1  UNL1       -0.4731
     32 C         141.9738  141.2372  168.6156 C.3     1  UNL1        0.2070
     33 C         142.1023  142.2714  167.5367 C.3     1  UNL1        0.0646
     34 C         143.3503  142.3388  166.7072 C.3     1  UNL1        0.0759
     35 N         143.2854  142.0751  165.2320 N.3     1  UNL1       -0.2751
     36 C         142.0452  142.4202  164.4622 C.3     1  UNL1        0.0575
     37 C         141.2559  142.3859  163.1871 C.3     1  UNL1        0.0173
     38 C         140.6861  143.0523  164.4041 C.3     1  UNL1        0.0173
     39 C         144.4609  141.4662  164.5265 C.3     1  UNL1        0.0575
     40 C         145.7085  141.6222  163.7085 C.3     1  UNL1        0.0173
     41 C         145.2492  140.2557  164.1226 C.3     1  UNL1        0.0173
@<TRIPOS>BOND
     1     7     8    2
     2     8     9   am
     3     9     1    1
     4     1     2    1
     5     2     3    1
     6     3     4    1
     7     4    23    1
     8    23    24    1
     9    24    25   ar
    10    25    26   ar
    11    26    27   ar
    12    27    31    1
    13    31    32    1
    14    32    33    1
    15    33    34    1
    16    34    35    1
    17    35    36    1
    18    36    37    1
    19    37    38    1
    20    35    39    1
    21    39    40    1
    22    40    41    1
    23    27    28   ar
    24    28    29    1
    25    28    30   ar
    26     4     5    1
    27     5     6    1
    28     8    11    1
    29    11    12   ar
    30    12    13   ar
    31    13    14    2
    32    13    15   ar
    33    15    16   ar
    34    16    17   ar
    35    17    18   ar
    36    18    19    1
    37    18    20   ar
    38    20    21   ar
    39    21    22   ar
    40     6     1    1
    41    22    11   ar
    42    30    24   ar
    43    21    15   ar
    44    38    36    1
    45    41    39    1
    46     9    10    1
@<TRIPOS>MOLECULE
*****
 41 46 0 0 0
SMALL
GASTEIGER

@<TRIPOS>ATOM
      1 C         138.5723  142.1011  159.6654 C.3     1  UNL1        0.0747
      2 C         138.1648  142.5057  161.0512 C.3     1  UNL1        0.0369
      3 C         138.0782  141.4757  162.1382 C.3     1  UNL1        0.0741
      4 N         138.3990  140.0412  161.8395 N.3     1  UNL1       -0.2689
      5 C         138.8065  139.6366  160.4537 C.3     1  UNL1        0.0741
      6 C         138.8931  140.6667  159.3667 C.3     1  UNL1        0.0369
      7 O         141.1152  143.6393  159.2556 O.2     1  UNL1       -0.2668
      8 C         139.9304  143.9001  158.3735 C.2     1  UNL1        0.2806
      9 N         138.6590  143.1311  158.5784 N.am    1  UNL1       -0.2999
     10 H         137.8813  143.3023  157.9994 H       1  UNL1        0.1498
     11 C         140.0170  144.9301  157.2864 C.ar    1  UNL1        0.2014
     12 C         140.8033  144.6426  156.0418 C.ar    1  UNL1        0.0843
     13 C         140.8899  145.6725  154.9547 C.ar    1  UNL1        0.2018
     14 O         141.6762  145.3850  153.7101 O.2     1  UNL1       -0.2864
     15 C         140.1903  146.9900  155.1122 C.ar    1  UNL1        0.0737
     16 C         140.2769  148.0199  154.0252 C.ar    1  UNL1        0.0085
     17 C         139.5773  149.3373  154.1828 C.ar    1  UNL1        0.0299
     18 C         138.7910  149.6249  155.4274 C.ar    1  UNL1        0.1432
     19 F         138.0914  150.9424  155.5850 F       1  UNL1       -0.2041
     20 C         138.7044  148.5950  156.5145 C.ar    1  UNL1        0.0672
     21 C         139.4040  147.2775  156.3569 C.ar    1  UNL1        0.1508
     22 O         139.3174  146.2476  157.4440 O.2     1  UNL1       -0.4486
     23 C         138.3123  139.0112  162.9265 C.3     1  UNL1        0.0992
     24 C         139.0480  139.2191  164.2171 C.ar    1  UNL1       -0.0037
     25 C         138.3175  139.7321  165.4226 C.ar    1  UNL1        0.0003
     26 C         139.0532  139.9400  166.7131 C.ar    1  UNL1        0.0390
     27 C         140.5193  139.6349  166.7982 C.ar    1  UNL1        0.1658
     28 C         141.2498  139.1220  165.5928 C.ar    1  UNL1        0.1735
     29 F         142.7160  138.8169  165.6778 F       1  UNL1       -0.2010
     30 C         140.5141  138.9141  164.3022 C.ar    1  UNL1        0.0299
     31 O         141.2550  139.8428  168.0888 O.3     1  UNL1       -0.4731
     32 C         141.4314  141.2279  168.6368 C.3     1  UNL1        0.2070
     33 C         141.9361  142.3270  167.7494 C.3     1  UNL1        0.0646
     34 C         143.2060  142.1406  166.9731 C.3     1  UNL1        0.0759
     35 N         143.1813  142.1810  165.4739 N.3     1  UNL1       -0.2751
     36 C         144.3348  141.6292  164.6897 C.3     1  UNL1        0.0575
     37 C         145.0880  140.4547  164.1392 C.3     1  UNL1        0.0173
     38 C         145.5795  141.8482  163.8818 C.3     1  UNL1        0.0173
     39 C         142.0030  142.7730  164.7588 C.3     1  UNL1        0.0575
     40 C         141.4149  143.8460  163.8912 C.3     1  UNL1        0.0173
     41 C         140.5504  142.7255  164.3881 C.3     1  UNL1        0.0173
@<TRIPOS>BOND
     1     7     8    2
     2     8     9   am
     3     9     1    1
     4     1     2    1
     5     2     3    1
     6     3     4    1
     7     4    23    1
     8    23    24    1
     9    24    25   ar
    10    25    26   ar
    11    26    27   ar
    12    27    31    1
    13    31    32    1
    14    32    33    1
    15    33    34    1
    16    34    35    1
    17    35    36    1
    18    36    37    1
    19    37    38    1
    20    35    39    1
    21    39    40    1
    22    40    41    1
    23    27    28   ar
    24    28    29    1
    25    28    30   ar
    26     4     5    1
    27     5     6    1
    28     8    11    1
    29    11    12   ar
    30    12    13   ar
    31    13    14    2
    32    13    15   ar
    33    15    16   ar
    34    16    17   ar
    35    17    18   ar
    36    18    19    1
    37    18    20   ar
    38    20    21   ar
    39    21    22   ar
    40     6     1    1
    41    22    11   ar
    42    30    24   ar
    43    21    15   ar
    44    38    36    1
    45    41    39    1
    46     9    10    1
@<TRIPOS>MOLECULE
*****
 41 46 0 0 0
SMALL
GASTEIGER

@<TRIPOS>ATOM
      1 C         139.5097  141.6504  157.9218 C.3     1  UNL1        0.0747
      2 C         140.7291  140.9544  158.4498 C.3     1  UNL1        0.0369
      3 C         140.5840  139.8208  159.4212 C.3     1  UNL1        0.0741
      4 N         139.2196  139.3830  159.8647 N.3     1  UNL1       -0.2689
      5 C         138.0002  140.0789  159.3367 C.3     1  UNL1        0.0741
      6 C         138.1453  141.2126  158.3652 C.3     1  UNL1        0.0369
      7 O         139.7015  144.4709  158.9258 O.2     1  UNL1       -0.2668
      8 C         139.7507  144.1943  157.4524 C.2     1  UNL1        0.2806
      9 N         139.6547  142.7840  156.9504 N.am    1  UNL1       -0.2999
     10 H         139.6870  142.6025  155.9833 H       1  UNL1        0.1498
     11 C         139.8957  145.3280  156.4808 C.ar    1  UNL1        0.2014
     12 C         140.7295  145.1553  155.2459 C.ar    1  UNL1        0.0843
     13 C         140.8745  146.2889  154.2744 C.ar    1  UNL1        0.2018
     14 O         141.7083  146.1163  153.0394 O.2     1  UNL1       -0.2864
     15 C         140.1858  147.5952  154.5378 C.ar    1  UNL1        0.0737
     16 C         140.3309  148.7288  153.5663 C.ar    1  UNL1        0.0085
     17 C         139.6422  150.0351  153.8297 C.ar    1  UNL1        0.0299
     18 C         138.8085  150.2077  155.0647 C.ar    1  UNL1        0.1432
     19 F         138.1198  151.5140  155.3281 F       1  UNL1       -0.2041
     20 C         138.6634  149.0741  156.0362 C.ar    1  UNL1        0.0672
     21 C         139.3521  147.7679  155.7727 C.ar    1  UNL1        0.1508
     22 O         139.2071  146.6342  156.7443 O.2     1  UNL1       -0.4486
     23 C         139.0745  138.2493  160.8362 C.3     1  UNL1        0.0992
     24 C         138.9113  138.5323  162.3001 C.ar    1  UNL1       -0.0037
     25 C         139.3052  137.4980  163.3125 C.ar    1  UNL1        0.0003
     26 C         139.1420  137.7810  164.7765 C.ar    1  UNL1        0.0390
     27 C         138.5848  139.0984  165.2281 C.ar    1  UNL1        0.1658
     28 C         138.1908  140.1327  164.2158 C.ar    1  UNL1        0.1735
     29 F         137.6336  141.4502  164.6674 F       1  UNL1       -0.2010
     30 C         138.3541  139.8497  162.7518 C.ar    1  UNL1        0.0299
     31 O         138.4216  139.3814  166.6921 O.3     1  UNL1       -0.4731
     32 C         139.4539  140.1911  167.4191 C.3     1  UNL1        0.2070
     33 C         140.8367  140.3252  166.8536 C.3     1  UNL1        0.0646
     34 C         141.3518  141.6730  166.4434 C.3     1  UNL1        0.0759
     35 N         141.0612  142.2006  165.0696 N.3     1  UNL1       -0.2751
     36 C         140.2815  143.4711  164.9035 C.3     1  UNL1        0.0575
     37 C         139.1093  144.3330  165.2683 C.3     1  UNL1        0.0173
     38 C         140.1031  144.8100  164.2511 C.3     1  UNL1        0.0173
     39 C         141.5505  141.4575  163.8619 C.3     1  UNL1        0.0575
     40 C         142.1154  140.2136  163.2426 C.3     1  UNL1        0.0173
     41 C         141.8331  141.4145  162.3894 C.3     1  UNL1        0.0173
@<TRIPOS>BOND
     1     7     8    2
     2     8     9   am
     3     9     1    1
     4     1     2    1
     5     2     3    1
     6     3     4    1
     7     4    23    1
     8    23    24    1
     9    24    25   ar
    10    25    26   ar
    11    26    27   ar
    12    27    31    1
    13    31    32    1
    14    32    33    1
    15    33    34    1
    16    34    35    1
    17    35    36    1
    18    36    37    1
    19    37    38    1
    20    35    39    1
    21    39    40    1
    22    40    41    1
    23    27    28   ar
    24    28    29    1
    25    28    30   ar
    26     4     5    1
    27     5     6    1
    28     8    11    1
    29    11    12   ar
    30    12    13   ar
    31    13    14    2
    32    13    15   ar
    33    15    16   ar
    34    16    17   ar
    35    17    18   ar
    36    18    19    1
    37    18    20   ar
    38    20    21   ar
    39    21    22   ar
    40     6     1    1
    41    22    11   ar
    42    30    24   ar
    43    21    15   ar
    44    38    36    1
    45    41    39    1
    46     9    10    1
@<TRIPOS>MOLECULE
*****
 41 46 0 0 0
SMALL
GASTEIGER

@<TRIPOS>ATOM
      1 C         138.3609  140.1878  159.2988 C.3     1  UNL1        0.0747
      2 C         138.6169  141.6656  159.3188 C.3     1  UNL1        0.0369
      3 C         138.3311  142.4597  160.5588 C.3     1  UNL1        0.0741
      4 N         137.7892  141.7758  161.7790 N.3     1  UNL1       -0.2689
      5 C         137.5331  140.2980  161.7590 C.3     1  UNL1        0.0741
      6 C         137.8190  139.5040  160.5189 C.3     1  UNL1        0.0369
      7 O         140.9522  138.6994  159.0346 O.2     1  UNL1       -0.2668
      8 C         139.9423  138.6496  157.9267 C.2     1  UNL1        0.2806
      9 N         138.6467  139.3938  158.0587 N.am    1  UNL1       -0.2999
     10 H         137.9839  139.3610  157.3315 H       1  UNL1        0.1498
     11 C         140.2281  137.8556  156.6865 C.ar    1  UNL1        0.2014
     12 C         139.6526  138.2873  155.3703 C.ar    1  UNL1        0.0843
     13 C         139.9383  137.4933  154.1302 C.ar    1  UNL1        0.2018
     14 O         139.3628  137.9250  152.8140 O.2     1  UNL1       -0.2864
     15 C         140.7997  136.2675  154.2062 C.ar    1  UNL1        0.0737
     16 C         141.0854  135.4736  152.9661 C.ar    1  UNL1        0.0085
     17 C         141.9467  134.2479  153.0422 C.ar    1  UNL1        0.0299
     18 C         142.5222  133.8162  154.3584 C.ar    1  UNL1        0.1432
     19 F         143.3835  132.5904  154.4345 F       1  UNL1       -0.2041
     20 C         142.2365  134.6101  155.5985 C.ar    1  UNL1        0.0672
     21 C         141.3752  135.8358  155.5224 C.ar    1  UNL1        0.1508
     22 O         141.0894  136.6299  156.7626 O.2     1  UNL1       -0.4486
     23 C         137.5034  142.5698  163.0191 C.3     1  UNL1        0.0992
     24 C         138.4156  142.4629  164.2050 C.ar    1  UNL1       -0.0037
     25 C         139.2656  143.6322  164.6052 C.ar    1  UNL1        0.0003
     26 C         140.1778  143.5252  165.7912 C.ar    1  UNL1        0.0390
     27 C         140.2400  142.2490  166.5769 C.ar    1  UNL1        0.1658
     28 C         139.3899  141.0797  166.1767 C.ar    1  UNL1        0.1735
     29 F         139.4521  139.8034  166.9624 F       1  UNL1       -0.2010
     30 C         138.4777  141.1867  164.9907 C.ar    1  UNL1        0.0299
     31 O         141.1522  142.1421  167.7628 O.3     1  UNL1       -0.4731
     32 C         142.3945  141.3056  167.6804 C.3     1  UNL1        0.2070
     33 C         143.1091  141.1510  166.3706 C.3     1  UNL1        0.0646
     34 C         143.0632  139.8410  165.6413 C.3     1  UNL1        0.0759
     35 N         142.0989  139.6464  164.5090 N.3     1  UNL1       -0.2751
     36 C         141.2935  138.3843  164.4183 C.3     1  UNL1        0.0575
     37 C         141.1792  136.9417  164.0235 C.3     1  UNL1        0.0173
     38 C         140.0125  137.6408  164.6560 C.3     1  UNL1        0.0173
     39 C         141.9401  140.7140  163.4672 C.3     1  UNL1        0.0575
     40 C         141.3190  141.2030  162.1925 C.3     1  UNL1        0.0173
     41 C         142.2863  142.0740  162.9378 C.3     1  UNL1        0.0173
@<TRIPOS>BOND
     1     7     8    2
     2     8     9   am
     3     9     1    1
     4     1     2    1
     5     2     3    1
     6     3     4    1
     7     4    23    1
     8    23    24    1
     9    24    25   ar
    10    25    26   ar
    11    26    27   ar
    12    27    31    1
    13    31    32    1
    14    32    33    1
    15    33    34    1
    16    34    35    1
    17    35    36    1
    18    36    37    1
    19    37    38    1
    20    35    39    1
    21    39    40    1
    22    40    41    1
    23    27    28   ar
    24    28    29    1
    25    28    30   ar
    26     4     5    1
    27     5     6    1
    28     8    11    1
    29    11    12   ar
    30    12    13   ar
    31    13    14    2
    32    13    15   ar
    33    15    16   ar
    34    16    17   ar
    35    17    18   ar
    36    18    19    1
    37    18    20   ar
    38    20    21   ar
    39    21    22   ar
    40     6     1    1
    41    22    11   ar
    42    30    24   ar
    43    21    15   ar
    44    38    36    1
    45    41    39    1
    46     9    10    1
@<TRIPOS>MOLECULE
*****
 41 46 0 0 0
SMALL
GASTEIGER

@<TRIPOS>ATOM
      1 C         142.5992  138.7606  159.7022 C.3     1  UNL1        0.0747
      2 C         141.2321  139.3012  160.0003 C.3     1  UNL1        0.0369
      3 C         141.0832  140.6110  160.7159 C.3     1  UNL1        0.0741
      4 N         142.3013  141.3803  161.1334 N.3     1  UNL1       -0.2689
      5 C         143.6684  140.8397  160.8354 C.3     1  UNL1        0.0741
      6 C         143.8173  139.5298  160.1197 C.3     1  UNL1        0.0369
      7 O         142.6620  138.6881  156.7038 O.2     1  UNL1       -0.2668
      8 C         142.7795  137.4145  157.4874 C.2     1  UNL1        0.2806
      9 N         142.7481  137.4508  158.9866 N.am    1  UNL1       -0.2999
     10 H         142.8253  136.6149  159.5010 H       1  UNL1        0.1498
     11 C         142.9285  136.1046  156.7718 C.ar    1  UNL1        0.2014
     12 C         142.4795  135.9732  155.3466 C.ar    1  UNL1        0.0843
     13 C         142.6284  134.6634  154.6310 C.ar    1  UNL1        0.2018
     14 O         142.1795  134.5321  153.2058 O.2     1  UNL1       -0.2864
     15 C         143.2263  133.4848  155.3407 C.ar    1  UNL1        0.0737
     16 C         143.3752  132.1750  154.6251 C.ar    1  UNL1        0.0085
     17 C         143.9731  130.9964  155.3347 C.ar    1  UNL1        0.0299
     18 C         144.4221  131.1278  156.7599 C.ar    1  UNL1        0.1432
     19 F         145.0199  129.9492  157.4695 F       1  UNL1       -0.2041
     20 C         144.2731  132.4376  157.4755 C.ar    1  UNL1        0.0672
     21 C         143.6753  133.6161  156.7659 C.ar    1  UNL1        0.1508
     22 O         143.5263  134.9261  157.4815 O.2     1  UNL1       -0.4486
     23 C         142.1524  142.6902  161.8490 C.3     1  UNL1        0.0992
     24 C         141.8370  142.7121  163.3153 C.ar    1  UNL1       -0.0037
     25 C         140.4104  142.7705  163.7748 C.ar    1  UNL1        0.0003
     26 C         140.0950  142.7924  165.2411 C.ar    1  UNL1        0.0390
     27 C         141.2063  142.7561  166.2479 C.ar    1  UNL1        0.1658
     28 C         142.6329  142.6977  165.7884 C.ar    1  UNL1        0.1735
     29 F         143.7443  142.6614  166.7952 F       1  UNL1       -0.2010
     30 C         142.9483  142.6758  164.3221 C.ar    1  UNL1        0.0299
     31 O         140.8909  142.7780  167.7142 O.3     1  UNL1       -0.4731
     32 C         141.4060  141.6896  168.6086 C.3     1  UNL1        0.2070
     33 C         140.9981  140.2662  168.3691 C.3     1  UNL1        0.0646
     34 C         141.6787  139.4601  167.3027 C.3     1  UNL1        0.0759
     35 N         140.9619  139.1551  166.0209 N.3     1  UNL1       -0.2751
     36 C         139.4630  139.1850  165.9743 C.3     1  UNL1        0.0575
     37 C         138.1373  138.7474  166.5229 C.3     1  UNL1        0.0173
     38 C         138.1924  139.6744  165.3450 C.3     1  UNL1        0.0173
     39 C         141.7442  138.8201  164.7856 C.3     1  UNL1        0.0575
     40 C         141.8550  138.1029  163.4728 C.3     1  UNL1        0.0173
     41 C         142.9882  138.9570  163.9588 C.3     1  UNL1        0.0173
@<TRIPOS>BOND
     1     7     8    2
     2     8     9   am
     3     9     1    1
     4     1     2    1
     5     2     3    1
     6     3     4    1
     7     4    23    1
     8    23    24    1
     9    24    25   ar
    10    25    26   ar
    11    26    27   ar
    12    27    31    1
    13    31    32    1
    14    32    33    1
    15    33    34    1
    16    34    35    1
    17    35    36    1
    18    36    37    1
    19    37    38    1
    20    35    39    1
    21    39    40    1
    22    40    41    1
    23    27    28   ar
    24    28    29    1
    25    28    30   ar
    26     4     5    1
    27     5     6    1
    28     8    11    1
    29    11    12   ar
    30    12    13   ar
    31    13    14    2
    32    13    15   ar
    33    15    16   ar
    34    16    17   ar
    35    17    18   ar
    36    18    19    1
    37    18    20   ar
    38    20    21   ar
    39    21    22   ar
    40     6     1    1
    41    22    11   ar
    42    30    24   ar
    43    21    15   ar
    44    38    36    1
    45    41    39    1
    46     9    10    1
