@<TRIPOS>MOLECULE
*****
 39 43 0 0 0
SMALL
GASTEIGER

@<TRIPOS>ATOM
      1 N         139.5801  139.0510  162.2636 N.pl3   1  UNL1       -0.2598
      2 C         138.5246  138.0859  162.7158 C.2     1  UNL1        0.1681
      3 N         138.1492  138.0102  164.1660 N.2     1  UNL1       -0.2278
      4 C         138.8293  138.8997  165.1642 C.ar    1  UNL1        0.0806
      5 C         138.4539  138.8240  166.6145 C.ar    1  UNL1        0.0146
      6 C         139.1340  139.7135  167.6127 C.ar    1  UNL1       -0.0204
      7 C         138.7586  139.6378  169.0629 C.3     1  UNL1        0.0311
      8 C         140.1895  140.6786  167.1605 C.ar    1  UNL1       -0.0040
      9 C         140.5649  140.7543  165.7102 C.ar    1  UNL1       -0.0010
     10 C         139.8848  139.8648  164.7121 C.ar    1  UNL1        0.0225
     11 C         140.2602  139.9405  163.2618 C.3     1  UNL1        0.1793
     12 C         142.7297  137.7093  158.3547 C.3     1  UNL1        0.0311
     13 C         141.5303  138.4558  158.8589 C.ar    1  UNL1       -0.0198
     14 C         140.7064  139.2780  157.9127 C.ar    1  UNL1        0.0072
     15 C         139.5070  140.0245  158.4169 C.ar    1  UNL1        0.0586
     16 CL        138.6831  140.8467  157.4708 Cl      1  UNL1       -0.0822
     17 C         139.1316  139.9489  159.8672 C.ar    1  UNL1        0.0263
     18 C         139.9555  139.1267  160.8133 C.ar    1  UNL1        0.0540
     19 C         141.1549  138.3802  160.3091 C.ar    1  UNL1        0.0107
     20 C         140.8697  141.5681  168.1586 C.ar    1  UNL1        0.0026
     21 C         142.2774  141.2762  168.5867 C.ar    1  UNL1        0.0297
     22 C         142.9575  142.1656  169.5848 C.ar    1  UNL1        0.1408
     23 F         144.3651  141.8738  170.0129 F       1  UNL1       -0.2042
     24 C         142.2299  143.3471  170.1549 C.ar    1  UNL1        0.0399
     25 C         140.8222  143.6389  169.7268 C.ar    1  UNL1        0.0707
     26 C         140.1421  142.7495  168.7287 C.ar    1  UNL1        0.0104
     27 C         140.0947  144.8203  170.2969 C.1     1  UNL1        0.1005
     28 N         139.3671  146.0017  170.8670 N.1     1  UNL1       -0.1908
     29 C         141.3157  140.9056  162.8096 C.2     1  UNL1        0.2485
     30 O         140.9244  142.2632  162.3059 O.2     1  UNL1       -0.2727
     31 N         142.7625  140.5131  162.8611 N.am    1  UNL1       -0.2748
     32 C         143.1538  139.1554  163.3648 C.3     1  UNL1        0.1150
     33 C         143.8180  141.4782  162.4090 C.3     1  UNL1        0.1091
     34 C         143.8916  142.8479  163.0160 C.3     1  UNL1        0.0741
     35 C         144.2248  143.1626  164.4442 C.3     1  UNL1        0.0189
     36 C         144.1840  144.6526  164.6123 C.3     1  UNL1        0.0185
     37 C         143.8254  145.2588  163.2879 C.3     1  UNL1        0.0686
     38 N         143.6447  144.1434  162.3013 N.3     1  UNL1       -0.2972
     39 H         144.3095  144.2481  161.5349 H       1  UNL1        0.1233
@<TRIPOS>BOND
     1    12    13    1
     2    13    14   ar
     3    14    15   ar
     4    15    16    1
     5    15    17   ar
     6    17    18   ar
     7    18     1    1
     8     1     2    1
     9     2     3    2
    10     3     4    1
    11     4     5   ar
    12     5     6   ar
    13     6     7    1
    14     6     8   ar
    15     8    20    1
    16    20    21   ar
    17    21    22   ar
    18    22    23    1
    19    22    24   ar
    20    24    25   ar
    21    25    27    1
    22    27    28    3
    23    25    26   ar
    24     8     9   ar
    25     9    10   ar
    26    10    11    1
    27    11    29    1
    28    29    30    2
    29    29    31   am
    30    31    32    1
    31    31    33    1
    32    34    33    1
    33    34    35    1
    34    35    36    1
    35    36    37    1
    36    37    38    1
    37    18    19   ar
    38    19    13   ar
    39    11     1    1
    40    38    34    1
    41    10     4   ar
    42    26    20   ar
    43    38    39    1
@<TRIPOS>MOLECULE
*****
 39 43 0 0 0
SMALL
GASTEIGER

@<TRIPOS>ATOM
      1 N         143.1965  140.0708  161.7621 N.pl3   1  UNL1       -0.2598
      2 C         144.1420  138.9387  162.0343 C.2     1  UNL1        0.1681
      3 N         144.3121  138.4234  163.4327 N.2     1  UNL1       -0.2278
      4 C         143.5366  139.0402  164.5588 C.ar    1  UNL1        0.0806
      5 C         143.7067  138.5249  165.9573 C.ar    1  UNL1        0.0146
      6 C         142.9313  139.1417  167.0834 C.ar    1  UNL1       -0.0204
      7 C         143.1013  138.6264  168.4818 C.3     1  UNL1        0.0311
      8 C         141.9857  140.2739  166.8111 C.ar    1  UNL1       -0.0040
      9 C         141.8156  140.7892  165.4127 C.ar    1  UNL1       -0.0010
     10 C         142.5911  140.1724  164.2866 C.ar    1  UNL1        0.0225
     11 C         142.4210  140.6877  162.8882 C.3     1  UNL1        0.1793
     12 C         140.4089  140.3791  157.3878 C.3     1  UNL1        0.0311
     13 C         141.6326  140.7403  158.1766 C.ar    1  UNL1       -0.0198
     14 C         142.6861  141.6169  157.5669 C.ar    1  UNL1        0.0072
     15 C         143.9098  141.9781  158.3556 C.ar    1  UNL1        0.0586
     16 CL        144.9634  142.8546  157.7460 Cl      1  UNL1       -0.0822
     17 C         144.0799  141.4627  159.7540 C.ar    1  UNL1        0.0263
     18 C         143.0264  140.5862  160.3637 C.ar    1  UNL1        0.0540
     19 C         141.8027  140.2250  159.5749 C.ar    1  UNL1        0.0107
     20 C         141.2102  140.8908  167.9372 C.ar    1  UNL1        0.0026
     21 C         141.5717  142.2585  168.4359 C.ar    1  UNL1        0.0297
     22 C         140.7962  142.8754  169.5620 C.ar    1  UNL1        0.1408
     23 F         141.1576  144.2430  170.0608 F       1  UNL1       -0.2042
     24 C         139.6593  142.1244  170.1894 C.ar    1  UNL1        0.0399
     25 C         139.2978  140.7568  169.6907 C.ar    1  UNL1        0.0707
     26 C         140.0733  140.1399  168.5646 C.ar    1  UNL1        0.0104
     27 C         138.1610  140.0059  170.3181 C.1     1  UNL1        0.1005
     28 N         137.0240  139.2550  170.9456 N.1     1  UNL1       -0.1908
     29 C         141.4754  141.8199  162.6159 C.2     1  UNL1        0.2485
     30 O         140.0287  141.5383  162.3374 O.2     1  UNL1       -0.2727
     31 N         141.9767  143.2336  162.6221 N.am    1  UNL1       -0.2748
     32 C         143.4236  143.5152  162.9005 C.3     1  UNL1        0.1150
     33 C         141.0312  144.3658  162.3498 C.3     1  UNL1        0.1091
     34 C         139.7177  144.4359  163.0706 C.3     1  UNL1        0.0741
     35 C         139.5287  144.6957  164.5358 C.3     1  UNL1        0.0189
     36 C         138.0567  144.6788  164.8236 C.3     1  UNL1        0.0185
     37 C         137.3358  144.4086  163.5363 C.3     1  UNL1        0.0686
     38 N         138.3623  144.2585  162.4529 N.3     1  UNL1       -0.2972
     39 H         138.2138  144.9674  161.7347 H       1  UNL1        0.1233
@<TRIPOS>BOND
     1    12    13    1
     2    13    14   ar
     3    14    15   ar
     4    15    16    1
     5    15    17   ar
     6    17    18   ar
     7    18     1    1
     8     1     2    1
     9     2     3    2
    10     3     4    1
    11     4     5   ar
    12     5     6   ar
    13     6     7    1
    14     6     8   ar
    15     8    20    1
    16    20    21   ar
    17    21    22   ar
    18    22    23    1
    19    22    24   ar
    20    24    25   ar
    21    25    27    1
    22    27    28    3
    23    25    26   ar
    24     8     9   ar
    25     9    10   ar
    26    10    11    1
    27    11    29    1
    28    29    30    2
    29    29    31   am
    30    31    32    1
    31    31    33    1
    32    34    33    1
    33    34    35    1
    34    35    36    1
    35    36    37    1
    36    37    38    1
    37    18    19   ar
    38    19    13   ar
    39    11     1    1
    40    38    34    1
    41    10     4   ar
    42    26    20   ar
    43    38    39    1
@<TRIPOS>MOLECULE
*****
 39 43 0 0 0
SMALL
GASTEIGER

@<TRIPOS>ATOM
      1 N         142.5206  140.8249  159.9407 N.pl3   1  UNL1       -0.2598
      2 C         143.6252  139.8184  159.8113 C.2     1  UNL1        0.1681
      3 N         144.1557  139.1262  161.0317 N.2     1  UNL1       -0.2278
      4 C         143.5817  139.4404  162.3814 C.ar    1  UNL1        0.0806
      5 C         144.1122  138.7481  163.6018 C.ar    1  UNL1        0.0146
      6 C         143.5382  139.0624  164.9515 C.ar    1  UNL1       -0.0204
      7 C         144.0687  138.3702  166.1718 C.3     1  UNL1        0.0311
      8 C         142.4335  140.0689  165.0808 C.ar    1  UNL1       -0.0040
      9 C         141.9029  140.7612  163.8604 C.ar    1  UNL1       -0.0010
     10 C         142.4770  140.4469  162.5107 C.ar    1  UNL1        0.0225
     11 C         141.9465  141.1391  161.2904 C.3     1  UNL1        0.1793
     12 C         139.4839  140.8151  155.7242 C.3     1  UNL1        0.0311
     13 C         140.4717  141.5122  156.6121 C.ar    1  UNL1       -0.0198
     14 C         140.9288  142.9017  156.2795 C.ar    1  UNL1        0.0072
     15 C         141.9166  143.5989  157.1674 C.ar    1  UNL1        0.0586
     16 CL        142.3737  144.9882  156.8349 Cl      1  UNL1       -0.0822
     17 C         142.4472  142.9066  158.3878 C.ar    1  UNL1        0.0263
     18 C         141.9900  141.5172  158.7203 C.ar    1  UNL1        0.0540
     19 C         141.0023  140.8200  157.8324 C.ar    1  UNL1        0.0107
     20 C         141.8594  140.3832  166.4305 C.ar    1  UNL1        0.0026
     21 C         140.5430  139.7929  166.8415 C.ar    1  UNL1        0.0297
     22 C         139.9689  140.1071  168.1912 C.ar    1  UNL1        0.1408
     23 F         138.6527  139.5169  168.6023 F       1  UNL1       -0.2042
     24 C         140.7112  141.0117  169.1298 C.ar    1  UNL1        0.0399
     25 C         142.0275  141.6019  168.7188 C.ar    1  UNL1        0.0707
     26 C         142.6016  141.2877  167.3691 C.ar    1  UNL1        0.0104
     27 C         142.7696  142.5064  169.6574 C.1     1  UNL1        0.1005
     28 N         143.5119  143.4109  170.5961 N.1     1  UNL1       -0.1908
     29 C         140.8418  142.1457  161.4197 C.2     1  UNL1        0.2485
     30 O         139.4175  141.7279  161.2038 O.2     1  UNL1       -0.2727
     31 N         141.1616  143.5700  161.7648 N.am    1  UNL1       -0.2748
     32 C         142.5860  143.9877  161.9807 C.3     1  UNL1        0.1150
     33 C         140.0570  144.5765  161.8941 C.3     1  UNL1        0.1091
     34 C         139.2352  144.6312  163.1477 C.3     1  UNL1        0.0741
     35 C         137.8191  144.1590  163.2950 C.3     1  UNL1        0.0189
     36 C         137.3938  144.4037  164.7125 C.3     1  UNL1        0.0185
     37 C         138.5471  145.0273  165.4413 C.3     1  UNL1        0.0686
     38 N         139.6851  145.1679  164.4742 N.3     1  UNL1       -0.2972
     39 H         140.4899  144.6372  164.8073 H       1  UNL1        0.1233
@<TRIPOS>BOND
     1    12    13    1
     2    13    14   ar
     3    14    15   ar
     4    15    16    1
     5    15    17   ar
     6    17    18   ar
     7    18     1    1
     8     1     2    1
     9     2     3    2
    10     3     4    1
    11     4     5   ar
    12     5     6   ar
    13     6     7    1
    14     6     8   ar
    15     8    20    1
    16    20    21   ar
    17    21    22   ar
    18    22    23    1
    19    22    24   ar
    20    24    25   ar
    21    25    27    1
    22    27    28    3
    23    25    26   ar
    24     8     9   ar
    25     9    10   ar
    26    10    11    1
    27    11    29    1
    28    29    30    2
    29    29    31   am
    30    31    32    1
    31    31    33    1
    32    34    33    1
    33    34    35    1
    34    35    36    1
    35    36    37    1
    36    37    38    1
    37    18    19   ar
    38    19    13   ar
    39    11     1    1
    40    38    34    1
    41    10     4   ar
    42    26    20   ar
    43    38    39    1
@<TRIPOS>MOLECULE
*****
 39 43 0 0 0
SMALL
GASTEIGER

@<TRIPOS>ATOM
      1 N         141.9461  142.0829  162.0502 N.pl3   1  UNL1       -0.2598
      2 C         142.9689  143.0276  161.4922 C.2     1  UNL1        0.1681
      3 N         143.6323  142.7257  160.1812 N.2     1  UNL1       -0.2278
      4 C         143.2729  141.4791  159.4283 C.ar    1  UNL1        0.0806
      5 C         143.9364  141.1773  158.1172 C.ar    1  UNL1        0.0146
      6 C         143.5770  139.9308  157.3642 C.ar    1  UNL1       -0.0204
      7 C         144.2404  139.6289  156.0533 C.3     1  UNL1        0.0311
      8 C         142.5542  138.9860  157.9223 C.ar    1  UNL1       -0.0040
      9 C         141.8908  139.2879  159.2333 C.ar    1  UNL1       -0.0010
     10 C         142.2501  140.5344  159.9863 C.ar    1  UNL1        0.0225
     11 C         141.5867  140.8363  161.2973 C.3     1  UNL1        0.1793
     12 C         141.9816  141.9613  167.2448 C.3     1  UNL1        0.0311
     13 C         141.3004  142.3239  165.9586 C.ar    1  UNL1       -0.0198
     14 C         139.9558  142.9883  165.9833 C.ar    1  UNL1        0.0072
     15 C         139.2746  143.3509  164.6971 C.ar    1  UNL1        0.0586
     16 CL        137.9300  144.0153  164.7218 Cl      1  UNL1       -0.0822
     17 C         139.9381  143.0491  163.3860 C.ar    1  UNL1        0.0263
     18 C         141.2826  142.3847  163.3613 C.ar    1  UNL1        0.0540
     19 C         141.9638  142.0221  164.6476 C.ar    1  UNL1        0.0107
     20 C         142.1948  137.7395  157.1694 C.ar    1  UNL1        0.0026
     21 C         141.0546  137.7544  156.1947 C.ar    1  UNL1        0.0297
     22 C         140.6953  136.5078  155.4418 C.ar    1  UNL1        0.1408
     23 F         139.5552  136.5227  154.4672 F       1  UNL1       -0.2042
     24 C         141.4761  135.2464  155.6635 C.ar    1  UNL1        0.0399
     25 C         142.6162  135.2315  156.6381 C.ar    1  UNL1        0.0707
     26 C         142.9755  136.4780  157.3910 C.ar    1  UNL1        0.0104
     27 C         143.3969  133.9700  156.8597 C.1     1  UNL1        0.1005
     28 N         144.1777  132.7085  157.0814 N.1     1  UNL1       -0.1908
     29 C         140.5639  139.8916  161.8554 C.2     1  UNL1        0.2485
     30 O         139.1150  140.0640  161.5077 O.2     1  UNL1       -0.2727
     31 N         140.9901  138.7744  162.7611 N.am    1  UNL1       -0.2748
     32 C         142.4391  138.6020  163.1087 C.3     1  UNL1        0.1150
     33 C         139.9673  137.8297  163.3192 C.3     1  UNL1        0.1091
     34 C         139.1840  138.2087  164.5410 C.3     1  UNL1        0.0741
     35 C         138.9200  139.6050  165.0211 C.3     1  UNL1        0.0189
     36 C         138.1000  139.5171  166.2741 C.3     1  UNL1        0.0185
     37 C         137.8573  138.0665  166.5684 C.3     1  UNL1        0.0686
     38 N         138.5273  137.2578  165.4973 N.3     1  UNL1       -0.2972
     39 H         137.8343  136.6946  165.0044 H       1  UNL1        0.1233
@<TRIPOS>BOND
     1    12    13    1
     2    13    14   ar
     3    14    15   ar
     4    15    16    1
     5    15    17   ar
     6    17    18   ar
     7    18     1    1
     8     1     2    1
     9     2     3    2
    10     3     4    1
    11     4     5   ar
    12     5     6   ar
    13     6     7    1
    14     6     8   ar
    15     8    20    1
    16    20    21   ar
    17    21    22   ar
    18    22    23    1
    19    22    24   ar
    20    24    25   ar
    21    25    27    1
    22    27    28    3
    23    25    26   ar
    24     8     9   ar
    25     9    10   ar
    26    10    11    1
    27    11    29    1
    28    29    30    2
    29    29    31   am
    30    31    32    1
    31    31    33    1
    32    34    33    1
    33    34    35    1
    34    35    36    1
    35    36    37    1
    36    37    38    1
    37    18    19   ar
    38    19    13   ar
    39    11     1    1
    40    38    34    1
    41    10     4   ar
    42    26    20   ar
    43    38    39    1
@<TRIPOS>MOLECULE
*****
 39 43 0 0 0
SMALL
GASTEIGER

@<TRIPOS>ATOM
      1 N         139.9332  143.8161  161.3155 N.pl3   1  UNL1       -0.2598
      2 C         140.5993  144.9639  160.6162 C.2     1  UNL1        0.1681
      3 N         140.5089  145.0873  159.1240 N.2     1  UNL1       -0.2278
      4 C         139.7525  144.0629  158.3312 C.ar    1  UNL1        0.0806
      5 C         139.6621  144.1864  156.8390 C.ar    1  UNL1        0.0146
      6 C         138.9057  143.1620  156.0461 C.ar    1  UNL1       -0.0204
      7 C         138.8154  143.2854  154.5540 C.3     1  UNL1        0.0311
      8 C         138.2397  142.0142  156.7455 C.ar    1  UNL1       -0.0040
      9 C         138.3301  141.8908  158.2377 C.ar    1  UNL1       -0.0010
     10 C         139.0865  142.9152  159.0305 C.ar    1  UNL1        0.0225
     11 C         139.1768  142.7918  160.5226 C.3     1  UNL1        0.1793
     12 C         142.0828  141.6700  165.5314 C.3     1  UNL1        0.0311
     13 C         141.0984  142.6196  164.9156 C.ar    1  UNL1       -0.0198
     14 C         140.2043  143.4458  165.7921 C.ar    1  UNL1        0.0072
     15 C         139.2199  144.3954  165.1764 C.ar    1  UNL1        0.0586
     16 CL        138.3259  145.2216  166.0527 Cl      1  UNL1       -0.0822
     17 C         139.1296  144.5189  163.6841 C.ar    1  UNL1        0.0263
     18 C         140.0236  143.6927  162.8077 C.ar    1  UNL1        0.0540
     19 C         141.0080  142.7431  163.4235 C.ar    1  UNL1        0.0107
     20 C         137.4833  140.9899  155.9527 C.ar    1  UNL1        0.0026
     21 C         135.9872  141.0605  155.8699 C.ar    1  UNL1        0.0297
     22 C         135.2308  140.0361  155.0770 C.ar    1  UNL1        0.1408
     23 F         133.7348  140.1067  154.9942 F       1  UNL1       -0.2042
     24 C         135.9705  138.9412  154.3670 C.ar    1  UNL1        0.0399
     25 C         137.4665  138.8707  154.4498 C.ar    1  UNL1        0.0707
     26 C         138.2229  139.8950  155.2427 C.ar    1  UNL1        0.0104
     27 C         138.2062  137.7758  153.7398 C.1     1  UNL1        0.1005
     28 N         138.9458  136.6808  153.0298 N.1     1  UNL1       -0.1908
     29 C         138.5108  141.6440  161.2220 C.2     1  UNL1        0.2485
     30 O         137.1593  141.8283  161.8461 O.2     1  UNL1       -0.2727
     31 N         139.1963  140.3120  161.2974 N.am    1  UNL1       -0.2748
     32 C         140.5479  140.1277  160.6733 C.3     1  UNL1        0.1150
     33 C         138.5304  139.1642  161.9967 C.3     1  UNL1        0.1091
     34 C         138.5063  139.1113  163.4956 C.3     1  UNL1        0.0741
     35 C         139.0174  137.9866  164.3464 C.3     1  UNL1        0.0189
     36 C         138.7939  138.3539  165.7835 C.3     1  UNL1        0.0185
     37 C         138.1448  139.7057  165.8208 C.3     1  UNL1        0.0686
     38 N         137.9671  140.1737  164.4068 N.3     1  UNL1       -0.2972
     39 H         138.4783  141.0447  164.2637 H       1  UNL1        0.1233
@<TRIPOS>BOND
     1    12    13    1
     2    13    14   ar
     3    14    15   ar
     4    15    16    1
     5    15    17   ar
     6    17    18   ar
     7    18     1    1
     8     1     2    1
     9     2     3    2
    10     3     4    1
    11     4     5   ar
    12     5     6   ar
    13     6     7    1
    14     6     8   ar
    15     8    20    1
    16    20    21   ar
    17    21    22   ar
    18    22    23    1
    19    22    24   ar
    20    24    25   ar
    21    25    27    1
    22    27    28    3
    23    25    26   ar
    24     8     9   ar
    25     9    10   ar
    26    10    11    1
    27    11    29    1
    28    29    30    2
    29    29    31   am
    30    31    32    1
    31    31    33    1
    32    34    33    1
    33    34    35    1
    34    35    36    1
    35    36    37    1
    36    37    38    1
    37    18    19   ar
    38    19    13   ar
    39    11     1    1
    40    38    34    1
    41    10     4   ar
    42    26    20   ar
    43    38    39    1
@<TRIPOS>MOLECULE
*****
 39 43 0 0 0
SMALL
GASTEIGER

@<TRIPOS>ATOM
      1 N         142.1986  142.0578  162.2959 N.pl3   1  UNL1       -0.2598
      2 C         143.3012  142.9397  161.7894 C.2     1  UNL1        0.1681
      3 N         143.9371  142.6570  160.4607 N.2     1  UNL1       -0.2278
      4 C         143.4706  141.4924  159.6385 C.ar    1  UNL1        0.0806
      5 C         144.1066  141.2097  158.3097 C.ar    1  UNL1        0.0146
      6 C         143.6401  140.0451  157.4874 C.ar    1  UNL1       -0.0204
      7 C         144.2761  139.7624  156.1587 C.3     1  UNL1        0.0311
      8 C         142.5375  139.1632  157.9940 C.ar    1  UNL1       -0.0040
      9 C         141.9015  139.4459  159.3228 C.ar    1  UNL1       -0.0010
     10 C         142.3681  140.6105  160.1450 C.ar    1  UNL1        0.0225
     11 C         141.7321  140.8932  161.4737 C.3     1  UNL1        0.1793
     12 C         138.5095  144.3929  165.1133 C.3     1  UNL1        0.0311
     13 C         139.7180  143.5080  165.0333 C.ar    1  UNL1       -0.0198
     14 C         140.2905  142.9058  166.2822 C.ar    1  UNL1        0.0072
     15 C         141.4991  142.0209  166.2023 C.ar    1  UNL1        0.0586
     16 CL        142.0716  141.4186  167.4511 Cl      1  UNL1       -0.0822
     17 C         142.1351  141.7382  164.8735 C.ar    1  UNL1        0.0263
     18 C         141.5626  142.3404  163.6247 C.ar    1  UNL1        0.0540
     19 C         140.3541  143.2253  163.7046 C.ar    1  UNL1        0.0107
     20 C         142.0709  137.9986  157.1718 C.ar    1  UNL1        0.0026
     21 C         142.8004  136.6898  157.2435 C.ar    1  UNL1        0.0297
     22 C         142.3338  135.5252  156.4213 C.ar    1  UNL1        0.1408
     23 F         143.0631  134.2164  156.4930 F       1  UNL1       -0.2042
     24 C         141.1378  135.6694  155.5274 C.ar    1  UNL1        0.0399
     25 C         140.4085  136.9781  155.4558 C.ar    1  UNL1        0.0707
     26 C         140.8751  138.1427  156.2780 C.ar    1  UNL1        0.0104
     27 C         139.2126  137.1223  154.5619 C.1     1  UNL1        0.1005
     28 N         138.0167  137.2664  153.6680 N.1     1  UNL1       -0.1908
     29 C         140.6295  140.0112  161.9803 C.2     1  UNL1        0.2485
     30 O         139.2007  140.3398  161.6633 O.2     1  UNL1       -0.2727
     31 N         140.9558  138.8007  162.8039 N.am    1  UNL1       -0.2748
     32 C         142.3847  138.4722  163.1209 C.3     1  UNL1        0.1150
     33 C         139.8533  137.9188  163.3105 C.3     1  UNL1        0.1091
     34 C         139.1268  138.2767  164.5731 C.3     1  UNL1        0.0741
     35 C         138.8986  139.6639  165.0961 C.3     1  UNL1        0.0189
     36 C         138.1318  139.5547  166.3807 C.3     1  UNL1        0.0185
     37 C         137.8860  138.0999  166.6515 C.3     1  UNL1        0.0686
     38 N         138.5010  137.3101  165.5344 N.3     1  UNL1       -0.2972
     39 H         137.7816  136.7656  165.0586 H       1  UNL1        0.1233
@<TRIPOS>BOND
     1    12    13    1
     2    13    14   ar
     3    14    15   ar
     4    15    16    1
     5    15    17   ar
     6    17    18   ar
     7    18     1    1
     8     1     2    1
     9     2     3    2
    10     3     4    1
    11     4     5   ar
    12     5     6   ar
    13     6     7    1
    14     6     8   ar
    15     8    20    1
    16    20    21   ar
    17    21    22   ar
    18    22    23    1
    19    22    24   ar
    20    24    25   ar
    21    25    27    1
    22    27    28    3
    23    25    26   ar
    24     8     9   ar
    25     9    10   ar
    26    10    11    1
    27    11    29    1
    28    29    30    2
    29    29    31   am
    30    31    32    1
    31    31    33    1
    32    34    33    1
    33    34    35    1
    34    35    36    1
    35    36    37    1
    36    37    38    1
    37    18    19   ar
    38    19    13   ar
    39    11     1    1
    40    38    34    1
    41    10     4   ar
    42    26    20   ar
    43    38    39    1
@<TRIPOS>MOLECULE
*****
 39 43 0 0 0
SMALL
GASTEIGER

@<TRIPOS>ATOM
      1 N         142.4777  142.0698  162.5195 N.pl3   1  UNL1       -0.2598
      2 C         143.5985  142.9256  162.0084 C.2     1  UNL1        0.1681
      3 N         144.1844  142.6631  160.6528 N.2     1  UNL1       -0.2278
      4 C         143.6495  141.5448  159.8083 C.ar    1  UNL1        0.0806
      5 C         144.2354  141.2823  158.4526 C.ar    1  UNL1        0.0146
      6 C         143.7005  140.1640  157.6081 C.ar    1  UNL1       -0.0204
      7 C         144.2863  139.9015  156.2524 C.3     1  UNL1        0.0311
      8 C         142.5796  139.3081  158.1193 C.ar    1  UNL1       -0.0040
      9 C         141.9937  139.5706  159.4749 C.ar    1  UNL1       -0.0010
     10 C         142.5286  140.6890  160.3194 C.ar    1  UNL1        0.0225
     11 C         141.9428  140.9515  161.6750 C.3     1  UNL1        0.1793
     12 C         142.5519  141.3650  167.6671 C.3     1  UNL1        0.0311
     13 C         141.9289  141.9799  166.4490 C.ar    1  UNL1       -0.0198
     14 C         140.7200  142.8572  166.5866 C.ar    1  UNL1        0.0072
     15 C         140.0970  143.4721  165.3685 C.ar    1  UNL1        0.0586
     16 CL        138.8881  144.3493  165.5060 Cl      1  UNL1       -0.0822
     17 C         140.6829  143.2096  164.0128 C.ar    1  UNL1        0.0263
     18 C         141.8918  142.3323  163.8752 C.ar    1  UNL1        0.0540
     19 C         142.5148  141.7174  165.0934 C.ar    1  UNL1        0.0107
     20 C         142.0446  138.1898  157.2747 C.ar    1  UNL1        0.0026
     21 C         142.8893  136.9784  157.0118 C.ar    1  UNL1        0.0297
     22 C         142.3544  135.8601  156.1673 C.ar    1  UNL1        0.1408
     23 F         143.1989  134.6487  155.9043 F       1  UNL1       -0.2042
     24 C         140.9748  135.9532  155.5857 C.ar    1  UNL1        0.0399
     25 C         140.1302  137.1646  155.8487 C.ar    1  UNL1        0.0707
     26 C         140.6651  138.2829  156.6932 C.ar    1  UNL1        0.0104
     27 C         138.7507  137.2576  155.2671 C.1     1  UNL1        0.1005
     28 N         137.3711  137.3507  154.6856 N.1     1  UNL1       -0.1908
     29 C         140.8219  140.0956  162.1862 C.2     1  UNL1        0.2485
     30 O         139.3983  140.4925  161.9298 O.2     1  UNL1       -0.2727
     31 N         141.1247  138.8430  162.9538 N.am    1  UNL1       -0.2748
     32 C         142.5484  138.4462  163.2102 C.3     1  UNL1        0.1150
     33 C         140.0039  137.9872  163.4650 C.3     1  UNL1        0.1091
     34 C         139.2975  138.3567  164.7356 C.3     1  UNL1        0.0741
     35 C         139.3471  139.6929  165.4154 C.3     1  UNL1        0.0189
     36 C         138.4977  139.6170  166.6495 C.3     1  UNL1        0.0185
     37 C         137.9231  138.2338  166.7323 C.3     1  UNL1        0.0686
     38 N         138.4175  137.4550  165.5494 N.3     1  UNL1       -0.2972
     39 H         137.6268  137.1423  164.9860 H       1  UNL1        0.1233
@<TRIPOS>BOND
     1    12    13    1
     2    13    14   ar
     3    14    15   ar
     4    15    16    1
     5    15    17   ar
     6    17    18   ar
     7    18     1    1
     8     1     2    1
     9     2     3    2
    10     3     4    1
    11     4     5   ar
    12     5     6   ar
    13     6     7    1
    14     6     8   ar
    15     8    20    1
    16    20    21   ar
    17    21    22   ar
    18    22    23    1
    19    22    24   ar
    20    24    25   ar
    21    25    27    1
    22    27    28    3
    23    25    26   ar
    24     8     9   ar
    25     9    10   ar
    26    10    11    1
    27    11    29    1
    28    29    30    2
    29    29    31   am
    30    31    32    1
    31    31    33    1
    32    34    33    1
    33    34    35    1
    34    35    36    1
    35    36    37    1
    36    37    38    1
    37    18    19   ar
    38    19    13   ar
    39    11     1    1
    40    38    34    1
    41    10     4   ar
    42    26    20   ar
    43    38    39    1
@<TRIPOS>MOLECULE
*****
 39 43 0 0 0
SMALL
GASTEIGER

@<TRIPOS>ATOM
      1 N         143.0177  139.9616  161.7308 N.pl3   1  UNL1       -0.2598
      2 C         143.9992  138.8646  162.0190 C.2     1  UNL1        0.1681
      3 N         144.2070  138.3955  163.4285 N.2     1  UNL1       -0.2278
      4 C         143.4334  139.0234  164.5497 C.ar    1  UNL1        0.0806
      5 C         143.6413  138.5543  165.9593 C.ar    1  UNL1        0.0146
      6 C         142.8677  139.1822  167.0805 C.ar    1  UNL1       -0.0204
      7 C         143.0756  138.7131  168.4900 C.3     1  UNL1        0.0311
      8 C         141.8861  140.2793  166.7922 C.ar    1  UNL1       -0.0040
      9 C         141.6783  140.7484  165.3828 C.ar    1  UNL1       -0.0010
     10 C         142.4519  140.1204  164.2615 C.ar    1  UNL1        0.0225
     11 C         142.2440  140.5895  162.8520 C.3     1  UNL1        0.1793
     12 C         144.5009  142.8771  157.6935 C.3     1  UNL1        0.0311
     13 C         143.5514  141.8885  158.3026 C.ar    1  UNL1       -0.0198
     14 C         142.3939  141.3690  157.5022 C.ar    1  UNL1        0.0072
     15 C         141.4444  140.3804  158.1114 C.ar    1  UNL1        0.0586
     16 CL        140.2870  139.8610  157.3110 Cl      1  UNL1       -0.0822
     17 C         141.6523  139.9113  159.5209 C.ar    1  UNL1        0.0263
     18 C         142.8097  140.4307  160.3212 C.ar    1  UNL1        0.0540
     19 C         143.7593  141.4193  159.7121 C.ar    1  UNL1        0.0107
     20 C         141.1125  140.9072  167.9135 C.ar    1  UNL1        0.0026
     21 C         141.4566  142.2909  168.3794 C.ar    1  UNL1        0.0297
     22 C         140.6830  142.9189  169.5006 C.ar    1  UNL1        0.1408
     23 F         141.0271  144.3025  169.9665 F       1  UNL1       -0.2042
     24 C         139.5652  142.1631  170.1560 C.ar    1  UNL1        0.0399
     25 C         139.2211  140.7794  169.6901 C.ar    1  UNL1        0.0707
     26 C         139.9948  140.1515  168.5688 C.ar    1  UNL1        0.0104
     27 C         138.1034  140.0237  170.3455 C.1     1  UNL1        0.1005
     28 N         136.9857  139.2679  171.0009 N.1     1  UNL1       -0.1908
     29 C         141.2625  141.6866  162.5637 C.2     1  UNL1        0.2485
     30 O         139.8355  141.3517  162.2453 O.2     1  UNL1       -0.2727
     31 N         141.7080  143.1186  162.5939 N.am    1  UNL1       -0.2748
     32 C         143.1351  143.4535  162.9124 C.3     1  UNL1        0.1150
     33 C         140.7265  144.2156  162.3056 C.3     1  UNL1        0.1091
     34 C         140.6464  144.8079  160.9298 C.3     1  UNL1        0.0741
     35 C         141.4866  144.4157  159.7507 C.3     1  UNL1        0.0189
     36 C         141.0714  145.2617  158.5837 C.3     1  UNL1        0.0185
     37 C         139.9747  146.1768  159.0416 C.3     1  UNL1        0.0686
     38 N         139.7120  145.8964  160.4915 N.3     1  UNL1       -0.2972
     39 H         138.7458  145.5941  160.6161 H       1  UNL1        0.1233
@<TRIPOS>BOND
     1    12    13    1
     2    13    14   ar
     3    14    15   ar
     4    15    16    1
     5    15    17   ar
     6    17    18   ar
     7    18     1    1
     8     1     2    1
     9     2     3    2
    10     3     4    1
    11     4     5   ar
    12     5     6   ar
    13     6     7    1
    14     6     8   ar
    15     8    20    1
    16    20    21   ar
    17    21    22   ar
    18    22    23    1
    19    22    24   ar
    20    24    25   ar
    21    25    27    1
    22    27    28    3
    23    25    26   ar
    24     8     9   ar
    25     9    10   ar
    26    10    11    1
    27    11    29    1
    28    29    30    2
    29    29    31   am
    30    31    32    1
    31    31    33    1
    32    34    33    1
    33    34    35    1
    34    35    36    1
    35    36    37    1
    36    37    38    1
    37    18    19   ar
    38    19    13   ar
    39    11     1    1
    40    38    34    1
    41    10     4   ar
    42    26    20   ar
    43    38    39    1
@<TRIPOS>MOLECULE
*****
 39 43 0 0 0
SMALL
GASTEIGER

@<TRIPOS>ATOM
      1 N         140.4808  139.9834  159.2663 N.pl3   1  UNL1       -0.2598
      2 C         139.6480  138.7473  159.0980 C.2     1  UNL1        0.1681
      3 N         139.1436  138.0128  160.3046 N.2     1  UNL1       -0.2278
      4 C         139.4721  138.5143  161.6796 C.ar    1  UNL1        0.0806
      5 C         138.9677  137.7797  162.8862 C.ar    1  UNL1        0.0146
      6 C         139.2962  138.2812  164.2612 C.ar    1  UNL1       -0.0204
      7 C         138.7918  137.5466  165.4678 C.3     1  UNL1        0.0311
      8 C         140.1291  139.5174  164.4295 C.ar    1  UNL1       -0.0040
      9 C         140.6335  140.2519  163.2229 C.ar    1  UNL1       -0.0010
     10 C         140.3050  139.7504  161.8479 C.ar    1  UNL1        0.0225
     11 C         140.8093  140.4849  160.6413 C.3     1  UNL1        0.1793
     12 C         139.8424  143.6435  155.6336 C.3     1  UNL1        0.0311
     13 C         140.6660  142.5481  156.2433 C.ar    1  UNL1       -0.0198
     14 C         141.9940  142.1873  155.6464 C.ar    1  UNL1        0.0072
     15 C         142.8176  141.0919  156.2561 C.ar    1  UNL1        0.0586
     16 CL        144.1455  140.7311  155.6592 Cl      1  UNL1       -0.0822
     17 C         142.3132  140.3572  157.4627 C.ar    1  UNL1        0.0263
     18 C         140.9852  140.7180  158.0596 C.ar    1  UNL1        0.0540
     19 C         140.1616  141.8135  157.4499 C.ar    1  UNL1        0.0107
     20 C         140.4576  140.0189  165.8045 C.ar    1  UNL1        0.0026
     21 C         141.7492  140.7410  166.0507 C.ar    1  UNL1        0.0297
     22 C         142.0777  141.2425  167.4257 C.ar    1  UNL1        0.1408
     23 F         143.3691  141.9645  167.6720 F       1  UNL1       -0.2042
     24 C         141.1146  141.0219  168.5544 C.ar    1  UNL1        0.0399
     25 C         139.8231  140.2999  168.3082 C.ar    1  UNL1        0.0707
     26 C         139.4946  139.7984  166.9332 C.ar    1  UNL1        0.0104
     27 C         138.8602  140.0794  169.4368 C.1     1  UNL1        0.1005
     28 N         137.8972  139.8589  170.5656 N.1     1  UNL1       -0.1908
     29 C         141.6422  141.7211  160.8096 C.2     1  UNL1        0.2485
     30 O         140.9841  143.0681  160.8573 O.2     1  UNL1       -0.2727
     31 N         143.1333  141.6101  160.9302 N.am    1  UNL1       -0.2748
     32 C         143.7914  140.2630  160.8824 C.3     1  UNL1        0.1150
     33 C         143.9662  142.8462  161.0985 C.3     1  UNL1        0.1091
     34 C         143.9761  143.5708  162.4118 C.3     1  UNL1        0.0741
     35 C         144.2951  142.9692  163.7483 C.3     1  UNL1        0.0189
     36 C         144.1850  144.0508  164.7817 C.3     1  UNL1        0.0185
     37 C         143.7980  145.3210  164.0839 C.3     1  UNL1        0.0686
     38 N         143.6689  145.0243  162.6192 N.3     1  UNL1       -0.2972
     39 H         144.3278  145.5962  162.0908 H       1  UNL1        0.1233
@<TRIPOS>BOND
     1    12    13    1
     2    13    14   ar
     3    14    15   ar
     4    15    16    1
     5    15    17   ar
     6    17    18   ar
     7    18     1    1
     8     1     2    1
     9     2     3    2
    10     3     4    1
    11     4     5   ar
    12     5     6   ar
    13     6     7    1
    14     6     8   ar
    15     8    20    1
    16    20    21   ar
    17    21    22   ar
    18    22    23    1
    19    22    24   ar
    20    24    25   ar
    21    25    27    1
    22    27    28    3
    23    25    26   ar
    24     8     9   ar
    25     9    10   ar
    26    10    11    1
    27    11    29    1
    28    29    30    2
    29    29    31   am
    30    31    32    1
    31    31    33    1
    32    34    33    1
    33    34    35    1
    34    35    36    1
    35    36    37    1
    36    37    38    1
    37    18    19   ar
    38    19    13   ar
    39    11     1    1
    40    38    34    1
    41    10     4   ar
    42    26    20   ar
    43    38    39    1
