@<TRIPOS>MOLECULE
*****
 37 42 0 0 0
SMALL
GASTEIGER

@<TRIPOS>ATOM
      1 C         139.9520  137.6907  164.6196 C.3     1  UNL1        0.0103
      2 C         141.1086  138.2974  163.8818 C.3     1  UNL1        0.0544
      3 C         140.6354  137.3092  162.8572 C.3     1  UNL1        0.0103
      4 C         142.1009  138.5608  162.7882 C.ar    1  UNL1       -0.0148
      5 C         142.0294  137.7834  161.5074 C.ar    1  UNL1       -0.0081
      6 C         143.0216  138.0469  160.4138 C.ar    1  UNL1       -0.0227
      7 C         144.0854  139.0877  160.6010 C.ar    1  UNL1       -0.0042
      8 C         144.1569  139.8651  161.8818 C.ar    1  UNL1        0.0026
      9 C         143.1646  139.6017  162.9754 C.ar    1  UNL1        0.0353
     10 C         143.2361  140.3791  164.2563 C.2     1  UNL1        0.1964
     11 O         144.2998  141.4200  164.4435 O.2     1  UNL1       -0.2865
     12 C         142.2438  140.1157  165.3498 C.2     1  UNL1        0.0539
     13 C         141.1801  139.0748  165.1626 C.2     1  UNL1        0.0647
     14 N         140.3458  139.0354  166.4086 N.2     1  UNL1       -0.2532
     15 C         140.8938  140.0519  167.3658 C.2     1  UNL1        0.0638
     16 C         140.4763  140.4558  168.7488 C.3     1  UNL1        0.0825
     17 C         141.2319  141.5273  169.4774 C.2     1  UNL1        0.0522
     18 C         142.4049  142.1950  168.8230 C.2     1  UNL1        0.0064
     19 C         142.8224  141.7911  167.4401 C.2     1  UNL1        0.0017
     20 C         142.0669  140.7195  166.7115 C.2     1  UNL1        0.0181
     21 C         142.9502  137.2694  159.1329 C.3     1  UNL1        0.0251
     22 C         142.5078  137.9454  157.8690 C.3     1  UNL1        0.0217
     23 C         142.4363  137.1680  156.5882 C.3     1  UNL1        0.0725
     24 N         142.8073  135.7146  156.5712 N.3     1  UNL1       -0.2707
     25 C         143.2497  135.0387  157.8351 C.3     1  UNL1        0.0725
     26 C         143.3211  135.8161  159.1160 C.3     1  UNL1        0.0217
     27 C         142.7358  134.9373  155.2904 C.3     1  UNL1        0.0994
     28 C         142.1333  133.5637  155.2793 C.3     1  UNL1        0.1078
     29 O         140.8852  134.3954  155.2971 O.3     1  UNL1       -0.3852
     30 C         143.5907  133.2090  155.2654 C.3     1  UNL1        0.0604
     31 C         144.0121  131.7695  155.2466 C.3     1  UNL1        0.1446
     32 O         142.9762  130.6848  155.2417 O.3     1  UNL1       -0.3536
     33 C         141.5187  131.0395  155.2556 C.3     1  UNL1        0.1446
     34 C         141.0974  132.4789  155.2744 C.3     1  UNL1        0.0604
     35 H         141.1233  135.3357  155.3058 H       1  UNL1        0.2103
     36 C         140.8144  141.9312  170.8603 C.1     1  UNL1        0.0965
     37 N         140.3969  142.3352  172.2432 N.1     1  UNL1       -0.1911
@<TRIPOS>BOND
     1     1     2    1
     2     2     3    1
     3     2     4    1
     4     4     5   ar
     5     5     6   ar
     6     6    21    1
     7    21    22    1
     8    22    23    1
     9    23    24    1
    10    24    27    1
    11    27    28    1
    12    28    29    1
    13    28    30    1
    14    30    31    1
    15    31    32    1
    16    32    33    1
    17    33    34    1
    18    24    25    1
    19    25    26    1
    20     6     7   ar
    21     7     8   ar
    22     8     9   ar
    23     9    10    1
    24    10    11    2
    25    10    12    1
    26    12    13    2
    27    13    14    1
    28    14    15    2
    29    15    16    1
    30    16    17    1
    31    17    36    1
    32    36    37    3
    33    17    18    2
    34    18    19    1
    35    19    20    2
    36    13     2    1
    37    20    15    1
    38     9     4   ar
    39    20    12    1
    40    26    21    1
    41    34    28    1
    42    29    35    1
@<TRIPOS>MOLECULE
*****
 37 42 0 0 0
SMALL
GASTEIGER

@<TRIPOS>ATOM
      1 C         145.2156  141.9781  163.7268 C.3     1  UNL1        0.0103
      2 C         144.0199  142.3594  162.9052 C.3     1  UNL1        0.0544
      3 C         145.0412  142.1963  161.8187 C.3     1  UNL1        0.0103
      4 C         143.1789  142.6841  161.7063 C.ar    1  UNL1       -0.0148
      5 C         143.7849  142.6533  160.3345 C.ar    1  UNL1       -0.0081
      6 C         142.9439  142.9780  159.1357 C.ar    1  UNL1       -0.0227
      7 C         141.4969  143.3334  159.3086 C.ar    1  UNL1       -0.0042
      8 C         140.8909  143.3641  160.6804 C.ar    1  UNL1        0.0026
      9 C         141.7319  143.0395  161.8792 C.ar    1  UNL1        0.0353
     10 C         141.1259  143.0702  163.2511 C.2     1  UNL1        0.1964
     11 O         139.6789  143.4256  163.4240 O.2     1  UNL1       -0.2865
     12 C         141.9669  142.7456  164.4499 C.2     1  UNL1        0.0539
     13 C         143.4139  142.3902  164.2770 C.2     1  UNL1        0.0647
     14 N         143.9901  142.1190  165.6351 N.2     1  UNL1       -0.2532
     15 C         142.8993  142.3068  166.6474 C.2     1  UNL1        0.0638
     16 C         142.8830  142.1752  168.1415 C.3     1  UNL1        0.0825
     17 C         141.6163  142.4308  168.9032 C.2     1  UNL1        0.0522
     18 C         140.3659  142.8181  168.1707 C.2     1  UNL1        0.0064
     19 C         140.3822  142.9497  166.6765 C.2     1  UNL1        0.0017
     20 C         141.6489  142.6940  165.9149 C.2     1  UNL1        0.0181
     21 C         143.5498  142.9472  157.7638 C.3     1  UNL1        0.0251
     22 C         144.9365  142.4097  157.5683 C.3     1  UNL1        0.0217
     23 C         145.5425  142.3789  156.1965 C.3     1  UNL1        0.0725
     24 N         144.7618  142.8857  155.0202 N.3     1  UNL1       -0.2707
     25 C         143.3751  143.4233  155.2157 C.3     1  UNL1        0.0725
     26 C         142.7692  143.4540  156.5875 C.3     1  UNL1        0.0217
     27 C         145.3678  142.8550  153.6484 C.3     1  UNL1        0.0994
     28 C         146.7800  143.3165  153.4418 C.3     1  UNL1        0.1078
     29 O         146.1644  144.5838  153.9566 O.3     1  UNL1       -0.3852
     30 C         146.9050  141.8889  152.9987 C.3     1  UNL1        0.0604
     31 C         148.2286  141.3630  152.5278 C.3     1  UNL1        0.1446
     32 O         149.4269  142.2646  152.5000 O.3     1  UNL1       -0.3536
     33 C         149.3019  143.6923  152.9431 C.3     1  UNL1        0.1446
     34 C         147.9783  144.2182  153.4139 C.3     1  UNL1        0.0604
     35 H         145.2236  144.4350  154.1401 H       1  UNL1        0.2103
     36 C         141.6000  142.2992  170.3972 C.1     1  UNL1        0.0965
     37 N         141.5837  142.1676  171.8914 N.1     1  UNL1       -0.1911
@<TRIPOS>BOND
     1     1     2    1
     2     2     3    1
     3     2     4    1
     4     4     5   ar
     5     5     6   ar
     6     6    21    1
     7    21    22    1
     8    22    23    1
     9    23    24    1
    10    24    27    1
    11    27    28    1
    12    28    29    1
    13    28    30    1
    14    30    31    1
    15    31    32    1
    16    32    33    1
    17    33    34    1
    18    24    25    1
    19    25    26    1
    20     6     7   ar
    21     7     8   ar
    22     8     9   ar
    23     9    10    1
    24    10    11    2
    25    10    12    1
    26    12    13    2
    27    13    14    1
    28    14    15    2
    29    15    16    1
    30    16    17    1
    31    17    36    1
    32    36    37    3
    33    17    18    2
    34    18    19    1
    35    19    20    2
    36    13     2    1
    37    20    15    1
    38     9     4   ar
    39    20    12    1
    40    26    21    1
    41    34    28    1
    42    29    35    1
@<TRIPOS>MOLECULE
*****
 37 42 0 0 0
SMALL
GASTEIGER

@<TRIPOS>ATOM
      1 C         138.8246  144.5985  164.2008 C.3     1  UNL1        0.0103
      2 C         139.9855  144.0908  163.3978 C.3     1  UNL1        0.0544
      3 C         139.2293  144.8224  162.3287 C.3     1  UNL1        0.0103
      4 C         140.8838  143.8373  162.2235 C.ar    1  UNL1       -0.0148
      5 C         140.5308  144.3925  160.8756 C.ar    1  UNL1       -0.0081
      6 C         141.4290  144.1390  159.7014 C.ar    1  UNL1       -0.0227
      7 C         142.6803  143.3302  159.8751 C.ar    1  UNL1       -0.0042
      8 C         143.0333  142.7749  161.2231 C.ar    1  UNL1        0.0026
      9 C         142.1350  143.0285  162.3973 C.ar    1  UNL1        0.0353
     10 C         142.4880  142.4732  163.7454 C.2     1  UNL1        0.1964
     11 O         143.7393  141.6644  163.9191 O.2     1  UNL1       -0.2865
     12 C         141.5897  142.7268  164.9196 C.2     1  UNL1        0.0539
     13 C         140.3385  143.5356  164.7458 C.2     1  UNL1        0.0647
     14 N         139.6524  143.6199  166.0771 N.2     1  UNL1       -0.2532
     15 C         140.4797  142.8631  167.0736 C.2     1  UNL1        0.0638
     16 C         140.2974  142.6054  168.5400 C.3     1  UNL1        0.0825
     17 C         141.3124  141.7956  169.2910 C.2     1  UNL1        0.0522
     18 C         142.5097  141.2437  168.5756 C.2     1  UNL1        0.0064
     19 C         142.6920  141.5015  167.1092 C.2     1  UNL1        0.0017
     20 C         141.6770  142.3112  166.3582 C.2     1  UNL1        0.0181
     21 C         141.0761  144.6942  158.3533 C.3     1  UNL1        0.0251
     22 C         139.7750  144.3221  157.7062 C.3     1  UNL1        0.0217
     23 C         139.4220  144.8773  156.3582 C.3     1  UNL1        0.0725
     24 N         140.3701  145.8047  155.6573 N.3     1  UNL1       -0.2707
     25 C         141.6711  146.1768  156.3044 C.3     1  UNL1        0.0725
     26 C         142.0241  145.6215  157.6525 C.3     1  UNL1        0.0217
     27 C         140.0171  146.3599  154.3093 C.3     1  UNL1        0.0994
     28 C         140.1508  147.8304  154.0454 C.3     1  UNL1        0.1078
     29 O         141.1101  147.2942  153.0245 O.3     1  UNL1       -0.3852
     30 C         139.1450  147.8558  155.1579 C.3     1  UNL1        0.0604
     31 C         138.6062  149.1656  155.6520 C.3     1  UNL1        0.1446
     32 O         139.0730  150.4499  155.0336 O.3     1  UNL1       -0.3536
     33 C         140.0788  150.4245  153.9210 C.3     1  UNL1        0.1446
     34 C         140.6177  149.1147  153.4269 C.3     1  UNL1        0.0604
     35 H         141.1310  146.3259  153.0776 H       1  UNL1        0.2103
     36 C         141.1301  141.5379  170.7573 C.1     1  UNL1        0.0965
     37 N         140.9478  141.2801  172.2238 N.1     1  UNL1       -0.1911
@<TRIPOS>BOND
     1     1     2    1
     2     2     3    1
     3     2     4    1
     4     4     5   ar
     5     5     6   ar
     6     6    21    1
     7    21    22    1
     8    22    23    1
     9    23    24    1
    10    24    27    1
    11    27    28    1
    12    28    29    1
    13    28    30    1
    14    30    31    1
    15    31    32    1
    16    32    33    1
    17    33    34    1
    18    24    25    1
    19    25    26    1
    20     6     7   ar
    21     7     8   ar
    22     8     9   ar
    23     9    10    1
    24    10    11    2
    25    10    12    1
    26    12    13    2
    27    13    14    1
    28    14    15    2
    29    15    16    1
    30    16    17    1
    31    17    36    1
    32    36    37    3
    33    17    18    2
    34    18    19    1
    35    19    20    2
    36    13     2    1
    37    20    15    1
    38     9     4   ar
    39    20    12    1
    40    26    21    1
    41    34    28    1
    42    29    35    1
@<TRIPOS>MOLECULE
*****
 37 42 0 0 0
SMALL
GASTEIGER

@<TRIPOS>ATOM
      1 C         141.4870  137.6473  164.4831 C.3     1  UNL1        0.0103
      2 C         141.3284  138.7633  163.4934 C.3     1  UNL1        0.0544
      3 C         141.5650  137.6159  162.5566 C.3     1  UNL1        0.0103
      4 C         141.2521  139.4808  162.1783 C.ar    1  UNL1       -0.0148
      5 C         141.4335  138.7210  160.8978 C.ar    1  UNL1       -0.0081
      6 C         141.3571  139.4385  159.5828 C.ar    1  UNL1       -0.0227
      7 C         141.0993  140.9158  159.5483 C.ar    1  UNL1       -0.0042
      8 C         140.9179  141.6755  160.8288 C.ar    1  UNL1        0.0026
      9 C         140.9942  140.9581  162.1438 C.ar    1  UNL1        0.0353
     10 C         140.8128  141.7178  163.4244 C.2     1  UNL1        0.1964
     11 O         140.5549  143.1951  163.3899 O.2     1  UNL1       -0.2865
     12 C         140.8892  141.0003  164.7394 C.2     1  UNL1        0.0539
     13 C         141.1470  139.5231  164.7739 C.2     1  UNL1        0.0647
     14 N         141.1690  139.0898  166.2098 N.2     1  UNL1       -0.2532
     15 C         140.9247  140.2993  167.0628 C.2     1  UNL1        0.0638
     16 C         140.8374  140.4780  168.5496 C.3     1  UNL1        0.0825
     17 C         140.5772  141.8374  169.1276 C.2     1  UNL1        0.0522
     18 C         140.4043  143.0182  168.2188 C.2     1  UNL1        0.0064
     19 C         140.4916  142.8395  166.7320 C.2     1  UNL1        0.0017
     20 C         140.7518  141.4800  166.1540 C.2     1  UNL1        0.0181
     21 C         141.5386  138.6787  158.3022 C.3     1  UNL1        0.0251
     22 C         140.3810  137.9412  157.6972 C.3     1  UNL1        0.0217
     23 C         140.5624  137.1815  156.4166 C.3     1  UNL1        0.0725
     24 N         141.9015  137.1592  155.7410 N.3     1  UNL1       -0.2707
     25 C         143.0591  137.8967  156.3460 C.3     1  UNL1        0.0725
     26 C         142.8776  138.6565  157.6266 C.3     1  UNL1        0.0217
     27 C         142.0829  136.3994  154.4605 C.3     1  UNL1        0.0994
     28 C         141.9191  134.9085  154.4433 C.3     1  UNL1        0.1078
     29 O         140.7522  135.3086  153.5899 O.3     1  UNL1       -0.3852
     30 C         143.1429  135.0263  155.3027 C.3     1  UNL1        0.0604
     31 C         143.7977  133.7920  155.8485 C.3     1  UNL1        0.1446
     32 O         143.2287  132.4400  155.5350 O.3     1  UNL1       -0.3536
     33 C         142.0048  132.3223  154.6756 C.3     1  UNL1        0.1446
     34 C         141.3501  133.5565  154.1298 C.3     1  UNL1        0.0604
     35 H         140.7275  136.2748  153.5083 H       1  UNL1        0.2103
     36 C         140.4899  142.0162  170.6142 C.1     1  UNL1        0.0965
     37 N         140.4026  142.1949  172.1010 N.1     1  UNL1       -0.1911
@<TRIPOS>BOND
     1     1     2    1
     2     2     3    1
     3     2     4    1
     4     4     5   ar
     5     5     6   ar
     6     6    21    1
     7    21    22    1
     8    22    23    1
     9    23    24    1
    10    24    27    1
    11    27    28    1
    12    28    29    1
    13    28    30    1
    14    30    31    1
    15    31    32    1
    16    32    33    1
    17    33    34    1
    18    24    25    1
    19    25    26    1
    20     6     7   ar
    21     7     8   ar
    22     8     9   ar
    23     9    10    1
    24    10    11    2
    25    10    12    1
    26    12    13    2
    27    13    14    1
    28    14    15    2
    29    15    16    1
    30    16    17    1
    31    17    36    1
    32    36    37    3
    33    17    18    2
    34    18    19    1
    35    19    20    2
    36    13     2    1
    37    20    15    1
    38     9     4   ar
    39    20    12    1
    40    26    21    1
    41    34    28    1
    42    29    35    1
@<TRIPOS>MOLECULE
*****
 37 42 0 0 0
SMALL
GASTEIGER

@<TRIPOS>ATOM
      1 C         140.2159  144.0963  163.3825 C.3     1  UNL1        0.0103
      2 C         139.6938  142.7924  162.8557 C.3     1  UNL1        0.0544
      3 C         139.7878  143.5712  161.5770 C.3     1  UNL1        0.0103
      4 C         139.2044  141.7591  161.8847 C.ar    1  UNL1       -0.0148
      5 C         139.1171  142.0850  160.4232 C.ar    1  UNL1       -0.0081
      6 C         138.6277  141.0516  159.4523 C.ar    1  UNL1       -0.0227
      7 C         138.2256  139.6923  159.9430 C.ar    1  UNL1       -0.0042
      8 C         138.3130  139.3664  161.4045 C.ar    1  UNL1        0.0026
      9 C         138.8024  140.3998  162.3754 C.ar    1  UNL1        0.0353
     10 C         138.8898  140.0739  163.8370 C.2     1  UNL1        0.1964
     11 O         138.4878  138.7146  164.3277 O.2     1  UNL1       -0.2865
     12 C         139.3792  141.1072  164.8078 C.2     1  UNL1        0.0539
     13 C         139.7812  142.4665  164.3172 C.2     1  UNL1        0.0647
     14 N         140.2221  143.2750  165.5012 N.2     1  UNL1       -0.2532
     15 C         140.0926  142.4154  166.7237 C.2     1  UNL1        0.0638
     16 C         140.3818  142.6796  168.1717 C.3     1  UNL1        0.0825
     17 C         140.1500  141.6040  169.1911 C.2     1  UNL1        0.0522
     18 C         139.6290  140.2642  168.7626 C.2     1  UNL1        0.0064
     19 C         139.3398  140.0001  167.3146 C.2     1  UNL1        0.0017
     20 C         139.5716  141.0757  166.2951 C.2     1  UNL1        0.0181
     21 C         138.5403  141.3775  157.9907 C.3     1  UNL1        0.0251
     22 C         139.2559  140.5222  156.9875 C.3     1  UNL1        0.0217
     23 C         139.1685  140.8480  155.5260 C.3     1  UNL1        0.0725
     24 N         138.3655  142.0292  155.0676 N.3     1  UNL1       -0.2707
     25 C         137.6499  142.8845  156.0707 C.3     1  UNL1        0.0725
     26 C         137.7373  142.5586  157.5323 C.3     1  UNL1        0.0217
     27 C         138.2782  142.3550  153.6060 C.3     1  UNL1        0.0994
     28 C         136.9539  142.7018  152.9927 C.3     1  UNL1        0.1078
     29 O         137.6011  144.0549  152.9975 O.3     1  UNL1       -0.3852
     30 C         136.7667  141.2281  153.2010 C.3     1  UNL1        0.0604
     31 C         135.4800  140.5712  152.7976 C.3     1  UNL1        0.1446
     32 O         134.3805  141.3878  152.1860 O.3     1  UNL1       -0.3536
     33 C         134.5677  142.8615  151.9777 C.3     1  UNL1        0.1446
     34 C         135.8544  143.5184  152.3811 C.3     1  UNL1        0.0604
     35 H         138.4908  143.9865  153.3777 H       1  UNL1        0.2103
     36 C         140.4391  141.8681  170.6390 C.1     1  UNL1        0.0965
     37 N         140.7282  142.1322  172.0870 N.1     1  UNL1       -0.1911
@<TRIPOS>BOND
     1     1     2    1
     2     2     3    1
     3     2     4    1
     4     4     5   ar
     5     5     6   ar
     6     6    21    1
     7    21    22    1
     8    22    23    1
     9    23    24    1
    10    24    27    1
    11    27    28    1
    12    28    29    1
    13    28    30    1
    14    30    31    1
    15    31    32    1
    16    32    33    1
    17    33    34    1
    18    24    25    1
    19    25    26    1
    20     6     7   ar
    21     7     8   ar
    22     8     9   ar
    23     9    10    1
    24    10    11    2
    25    10    12    1
    26    12    13    2
    27    13    14    1
    28    14    15    2
    29    15    16    1
    30    16    17    1
    31    17    36    1
    32    36    37    3
    33    17    18    2
    34    18    19    1
    35    19    20    2
    36    13     2    1
    37    20    15    1
    38     9     4   ar
    39    20    12    1
    40    26    21    1
    41    34    28    1
    42    29    35    1
@<TRIPOS>MOLECULE
*****
 37 42 0 0 0
SMALL
GASTEIGER

@<TRIPOS>ATOM
      1 C         142.2214  137.6357  160.6632 C.3     1  UNL1        0.0103
      2 C         142.4705  139.1062  160.5028 C.3     1  UNL1        0.0544
      3 C         143.2859  138.5777  159.3600 C.3     1  UNL1        0.0103
      4 C         143.0027  140.3931  159.9455 C.ar    1  UNL1       -0.0148
      5 C         143.9046  140.3753  158.7470 C.ar    1  UNL1       -0.0081
      6 C         144.4368  141.6622  158.1898 C.ar    1  UNL1       -0.0227
      7 C         144.0671  142.9669  158.8310 C.ar    1  UNL1       -0.0042
      8 C         143.1653  142.9847  160.0294 C.ar    1  UNL1        0.0026
      9 C         142.6331  141.6978  160.5867 C.ar    1  UNL1        0.0353
     10 C         141.7312  141.7156  161.7852 C.2     1  UNL1        0.1964
     11 O         141.3615  143.0203  162.4264 O.2     1  UNL1       -0.2865
     12 C         141.1990  140.4286  162.3424 C.2     1  UNL1        0.0539
     13 C         141.5686  139.1239  161.7012 C.2     1  UNL1        0.0647
     14 N         140.8954  138.0239  162.4672 N.2     1  UNL1       -0.2532
     15 C         140.1097  138.6487  163.5818 C.2     1  UNL1        0.0638
     16 C         139.2476  138.0564  164.6569 C.3     1  UNL1        0.0825
     17 C         138.5732  138.9502  165.6550 C.2     1  UNL1        0.0522
     18 C         138.7608  140.4364  165.5779 C.2     1  UNL1        0.0064
     19 C         139.6229  141.0288  164.5027 C.2     1  UNL1        0.0017
     20 C         140.2973  140.1349  163.5046 C.2     1  UNL1        0.0181
     21 C         145.3387  141.6445  156.9913 C.3     1  UNL1        0.0251
     22 C         146.5653  142.5074  156.9628 C.3     1  UNL1        0.0217
     23 C         147.4671  142.4897  155.7644 C.3     1  UNL1        0.0725
     24 N         147.1424  141.6090  154.5943 N.3     1  UNL1       -0.2707
     25 C         145.9158  140.7461  154.6228 C.3     1  UNL1        0.0725
     26 C         145.0139  140.7638  155.8213 C.3     1  UNL1        0.0217
     27 C         148.0443  141.5913  153.3959 C.3     1  UNL1        0.0994
     28 C         149.1799  142.5664  153.2974 C.3     1  UNL1        0.1078
     29 O         148.0664  143.4067  152.7460 O.3     1  UNL1       -0.3852
     30 C         149.8989  141.3874  153.8829 C.3     1  UNL1        0.0604
     31 C         151.3670  141.4753  154.1785 C.3     1  UNL1        0.1446
     32 O         152.1158  142.7422  153.8885 O.3     1  UNL1       -0.3536
     33 C         151.3967  143.9212  153.3028 C.3     1  UNL1        0.1446
     34 C         149.9288  143.8332  153.0073 C.3     1  UNL1        0.0604
     35 H         147.2431  142.8938  152.7475 H       1  UNL1        0.2103
     36 C         137.7111  138.3579  166.7301 C.1     1  UNL1        0.0965
     37 N         136.8490  137.7656  167.8052 N.1     1  UNL1       -0.1911
@<TRIPOS>BOND
     1     1     2    1
     2     2     3    1
     3     2     4    1
     4     4     5   ar
     5     5     6   ar
     6     6    21    1
     7    21    22    1
     8    22    23    1
     9    23    24    1
    10    24    27    1
    11    27    28    1
    12    28    29    1
    13    28    30    1
    14    30    31    1
    15    31    32    1
    16    32    33    1
    17    33    34    1
    18    24    25    1
    19    25    26    1
    20     6     7   ar
    21     7     8   ar
    22     8     9   ar
    23     9    10    1
    24    10    11    2
    25    10    12    1
    26    12    13    2
    27    13    14    1
    28    14    15    2
    29    15    16    1
    30    16    17    1
    31    17    36    1
    32    36    37    3
    33    17    18    2
    34    18    19    1
    35    19    20    2
    36    13     2    1
    37    20    15    1
    38     9     4   ar
    39    20    12    1
    40    26    21    1
    41    34    28    1
    42    29    35    1
@<TRIPOS>MOLECULE
*****
 37 42 0 0 0
SMALL
GASTEIGER

@<TRIPOS>ATOM
      1 C         144.7220  142.8827  164.3616 C.3     1  UNL1        0.0103
      2 C         143.7896  142.0952  163.4895 C.3     1  UNL1        0.0544
      3 C         144.8240  142.4880  162.4768 C.3     1  UNL1        0.0103
      4 C         143.2164  141.4440  162.2657 C.ar    1  UNL1       -0.0148
      5 C         143.9270  141.5633  160.9502 C.ar    1  UNL1       -0.0081
      6 C         143.3539  140.9122  159.7264 C.ar    1  UNL1       -0.0227
      7 C         142.0701  140.1418  159.8183 C.ar    1  UNL1       -0.0042
      8 C         141.3595  140.0225  161.1339 C.ar    1  UNL1        0.0026
      9 C         141.9327  140.6736  162.3576 C.ar    1  UNL1        0.0353
     10 C         141.2220  140.5544  163.6732 C.2     1  UNL1        0.1964
     11 O         139.9383  139.7840  163.7651 O.2     1  UNL1       -0.2865
     12 C         141.7952  141.2055  164.8969 C.2     1  UNL1        0.0539
     13 C         143.0790  141.9759  164.8051 C.2     1  UNL1        0.0647
     14 N         143.4001  142.5060  166.1711 N.2     1  UNL1       -0.2532
     15 C         142.3149  142.0632  167.1071 C.2     1  UNL1        0.0638
     16 C         142.1018  142.2880  168.5748 C.3     1  UNL1        0.0825
     17 C         140.8968  141.7091  169.2550 C.2     1  UNL1        0.0522
     18 C         139.9049  140.9054  168.4676 C.2     1  UNL1        0.0064
     19 C         140.1180  140.6805  166.9999 C.2     1  UNL1        0.0017
     20 C         141.3230  141.2594  166.3197 C.2     1  UNL1        0.0181
     21 C         144.0645  141.0315  158.4108 C.3     1  UNL1        0.0251
     22 C         145.1123  142.0874  158.2173 C.3     1  UNL1        0.0217
     23 C         145.8229  142.2067  156.9018 C.3     1  UNL1        0.0725
     24 N         145.4857  141.2701  155.7796 N.3     1  UNL1       -0.2707
     25 C         144.4380  140.2143  155.9730 C.3     1  UNL1        0.0725
     26 C         143.7274  140.0950  157.2887 C.3     1  UNL1        0.0217
     27 C         146.1963  141.3894  154.4640 C.3     1  UNL1        0.0994
     28 C         146.5256  142.7437  153.9095 C.3     1  UNL1        0.1078
     29 O         145.0301  142.8430  153.9686 O.3     1  UNL1       -0.3852
     30 C         147.9068  142.1740  154.0430 C.3     1  UNL1        0.0604
     31 C         149.0979  142.9932  153.6426 C.3     1  UNL1        0.1446
     32 O         148.9078  144.3819  153.1086 O.3     1  UNL1       -0.3536
     33 C         147.5265  144.9517  152.9751 C.3     1  UNL1        0.1446
     34 C         146.3355  144.1325  153.3756 C.3     1  UNL1        0.0604
     35 H         144.6647  142.0153  154.3183 H       1  UNL1        0.2103
     36 C         140.6836  141.9339  170.7226 C.1     1  UNL1        0.0965
     37 N         140.4705  142.1588  172.1903 N.1     1  UNL1       -0.1911
@<TRIPOS>BOND
     1     1     2    1
     2     2     3    1
     3     2     4    1
     4     4     5   ar
     5     5     6   ar
     6     6    21    1
     7    21    22    1
     8    22    23    1
     9    23    24    1
    10    24    27    1
    11    27    28    1
    12    28    29    1
    13    28    30    1
    14    30    31    1
    15    31    32    1
    16    32    33    1
    17    33    34    1
    18    24    25    1
    19    25    26    1
    20     6     7   ar
    21     7     8   ar
    22     8     9   ar
    23     9    10    1
    24    10    11    2
    25    10    12    1
    26    12    13    2
    27    13    14    1
    28    14    15    2
    29    15    16    1
    30    16    17    1
    31    17    36    1
    32    36    37    3
    33    17    18    2
    34    18    19    1
    35    19    20    2
    36    13     2    1
    37    20    15    1
    38     9     4   ar
    39    20    12    1
    40    26    21    1
    41    34    28    1
    42    29    35    1
@<TRIPOS>MOLECULE
*****
 37 42 0 0 0
SMALL
GASTEIGER

@<TRIPOS>ATOM
      1 C         139.5050  139.1647  163.7074 C.3     1  UNL1        0.0103
      2 C         140.7888  139.6655  163.1149 C.3     1  UNL1        0.0544
      3 C         140.1941  138.9900  161.9148 C.3     1  UNL1        0.0103
      4 C         141.8662  139.9316  162.1056 C.ar    1  UNL1       -0.0148
      5 C         141.7173  139.4301  160.6998 C.ar    1  UNL1       -0.0081
      6 C         142.7946  139.6963  159.6906 C.ar    1  UNL1       -0.0227
      7 C         144.0207  140.4640  160.0872 C.ar    1  UNL1       -0.0042
      8 C         144.1696  140.9655  161.4930 C.ar    1  UNL1        0.0026
      9 C         143.0923  140.6993  162.5022 C.ar    1  UNL1        0.0353
     10 C         143.2411  141.2008  163.9081 C.2     1  UNL1        0.1964
     11 O         144.4672  141.9685  164.3046 O.2     1  UNL1       -0.2865
     12 C         142.1638  140.9347  164.9173 C.2     1  UNL1        0.0539
     13 C         140.9377  140.1670  164.5207 C.2     1  UNL1        0.0647
     14 N         140.0490  140.0590  165.7243 N.2     1  UNL1       -0.2532
     15 C         140.7259  140.7599  166.8647 C.2     1  UNL1        0.0638
     16 C         140.3209  140.9753  168.2929 C.3     1  UNL1        0.0825
     17 C         141.2230  141.7319  169.2223 C.2     1  UNL1        0.0522
     18 C         142.5300  142.2730  168.7235 C.2     1  UNL1        0.0064
     19 C         142.9350  142.0577  167.2953 C.2     1  UNL1        0.0017
     20 C         142.0329  141.3011  166.3659 C.2     1  UNL1        0.0181
     21 C         142.6458  139.1948  158.2847 C.3     1  UNL1        0.0251
     22 C         141.5895  138.1812  157.9579 C.3     1  UNL1        0.0217
     23 C         141.4407  137.6796  156.5521 C.3     1  UNL1        0.0725
     24 N         142.3481  138.1918  155.4731 N.3     1  UNL1       -0.2707
     25 C         143.4044  139.2054  155.7999 C.3     1  UNL1        0.0725
     26 C         143.5532  139.7069  157.2058 C.3     1  UNL1        0.0217
     27 C         142.1993  137.6903  154.0673 C.3     1  UNL1        0.0994
     28 C         142.1146  136.2164  153.8018 C.3     1  UNL1        0.1078
     29 O         143.4134  136.2721  154.5501 O.3     1  UNL1       -0.3852
     30 C         140.8452  136.6726  153.1457 C.3     1  UNL1        0.0604
     31 C         139.9422  135.6742  152.4840 C.3     1  UNL1        0.1446
     32 O         140.3086  134.2197  152.4784 O.3     1  UNL1       -0.3536
     33 C         141.5781  133.7635  153.1345 C.3     1  UNL1        0.1446
     34 C         142.4810  134.7619  153.7962 C.3     1  UNL1        0.0604
     35 H         143.6062  137.1906  154.7953 H       1  UNL1        0.2103
     36 C         140.8181  141.9472  170.6504 C.1     1  UNL1        0.0965
     37 N         140.4131  142.1626  172.0785 N.1     1  UNL1       -0.1911
@<TRIPOS>BOND
     1     1     2    1
     2     2     3    1
     3     2     4    1
     4     4     5   ar
     5     5     6   ar
     6     6    21    1
     7    21    22    1
     8    22    23    1
     9    23    24    1
    10    24    27    1
    11    27    28    1
    12    28    29    1
    13    28    30    1
    14    30    31    1
    15    31    32    1
    16    32    33    1
    17    33    34    1
    18    24    25    1
    19    25    26    1
    20     6     7   ar
    21     7     8   ar
    22     8     9   ar
    23     9    10    1
    24    10    11    2
    25    10    12    1
    26    12    13    2
    27    13    14    1
    28    14    15    2
    29    15    16    1
    30    16    17    1
    31    17    36    1
    32    36    37    3
    33    17    18    2
    34    18    19    1
    35    19    20    2
    36    13     2    1
    37    20    15    1
    38     9     4   ar
    39    20    12    1
    40    26    21    1
    41    34    28    1
    42    29    35    1
@<TRIPOS>MOLECULE
*****
 37 42 0 0 0
SMALL
GASTEIGER

@<TRIPOS>ATOM
      1 C         138.2816  142.9408  163.5791 C.3     1  UNL1        0.0103
      2 C         139.5432  142.8704  162.7707 C.3     1  UNL1        0.0544
      3 C         138.5352  143.0104  161.6687 C.3     1  UNL1        0.0103
      4 C         140.4547  142.8485  161.5795 C.ar    1  UNL1       -0.0148
      5 C         139.8849  142.9641  160.1969 C.ar    1  UNL1       -0.0081
      6 C         140.7964  142.9422  159.0058 C.ar    1  UNL1       -0.0227
      7 C         142.2777  142.8049  159.1974 C.ar    1  UNL1       -0.0042
      8 C         142.8476  142.6894  160.5801 C.ar    1  UNL1        0.0026
      9 C         141.9361  142.7112  161.7712 C.ar    1  UNL1        0.0353
     10 C         142.5060  142.5957  163.1539 C.2     1  UNL1        0.1964
     11 O         143.9873  142.4583  163.3456 O.2     1  UNL1       -0.2865
     12 C         141.5945  142.6175  164.3450 C.2     1  UNL1        0.0539
     13 C         140.1131  142.7548  164.1534 C.2     1  UNL1        0.0647
     14 N         139.4678  142.7458  165.5074 N.2     1  UNL1       -0.2532
     15 C         140.5503  142.6029  166.5359 C.2     1  UNL1        0.0638
     16 C         140.5090  142.5348  168.0338 C.3     1  UNL1        0.0825
     17 C         141.7820  142.3873  168.8133 C.2     1  UNL1        0.0522
     18 C         143.0964  142.3080  168.0948 C.2     1  UNL1        0.0064
     19 C         143.1377  142.3761  166.5970 C.2     1  UNL1        0.0017
     20 C         141.8646  142.5236  165.8175 C.2     1  UNL1        0.0181
     21 C         140.2265  143.0578  157.6230 C.3     1  UNL1        0.0251
     22 C         138.7413  143.1362  157.4281 C.3     1  UNL1        0.0217
     23 C         138.1714  143.2517  156.0454 C.3     1  UNL1        0.0725
     24 N         139.0868  143.2888  154.8576 N.3     1  UNL1       -0.2707
     25 C         140.5720  143.2103  155.0525 C.3     1  UNL1        0.0725
     26 C         141.1418  143.0948  156.4353 C.3     1  UNL1        0.0217
     27 C         138.5169  143.4043  153.4749 C.3     1  UNL1        0.0994
     28 C         137.1633  142.8337  153.1715 C.3     1  UNL1        0.1078
     29 O         136.8197  144.2917  153.2501 O.3     1  UNL1       -0.3852
     30 C         137.9770  141.5739  153.1982 C.3     1  UNL1        0.0604
     31 C         137.3177  140.2498  152.9488 C.3     1  UNL1        0.1446
     32 O         135.8448  140.1855  152.6727 O.3     1  UNL1       -0.3536
     33 C         135.0310  141.4454  152.6460 C.3     1  UNL1        0.1446
     34 C         135.6903  142.7694  152.8954 C.3     1  UNL1        0.0604
     35 H         137.6206  144.8025  153.4465 H       1  UNL1        0.2103
     36 C         141.7407  142.3191  170.3111 C.1     1  UNL1        0.0965
     37 N         141.6994  142.2510  171.8090 N.1     1  UNL1       -0.1911
@<TRIPOS>BOND
     1     1     2    1
     2     2     3    1
     3     2     4    1
     4     4     5   ar
     5     5     6   ar
     6     6    21    1
     7    21    22    1
     8    22    23    1
     9    23    24    1
    10    24    27    1
    11    27    28    1
    12    28    29    1
    13    28    30    1
    14    30    31    1
    15    31    32    1
    16    32    33    1
    17    33    34    1
    18    24    25    1
    19    25    26    1
    20     6     7   ar
    21     7     8   ar
    22     8     9   ar
    23     9    10    1
    24    10    11    2
    25    10    12    1
    26    12    13    2
    27    13    14    1
    28    14    15    2
    29    15    16    1
    30    16    17    1
    31    17    36    1
    32    36    37    3
    33    17    18    2
    34    18    19    1
    35    19    20    2
    36    13     2    1
    37    20    15    1
    38     9     4   ar
    39    20    12    1
    40    26    21    1
    41    34    28    1
    42    29    35    1
