@<TRIPOS>MOLECULE
*****
 34 37 0 0 0
SMALL
GASTEIGER

@<TRIPOS>ATOM
      1 C         141.8085  140.7975  167.7720 C.ar    1  UNL1        0.0685
      2 C         141.6988  140.5617  169.2493 C.ar    1  UNL1        0.0885
      3 C         140.4409  139.9820  169.8249 C.ar    1  UNL1        0.1263
      4 N         139.2925  139.6379  168.9232 N.ar    1  UNL1       -0.1633
      5 N         139.4022  139.8736  167.4460 N.ar    1  UNL1       -0.2270
      6 C         138.4431  139.6350  166.3176 C.ar    1  UNL1        0.1005
      7 C         139.1084  140.0673  165.0446 C.ar    1  UNL1        0.0222
      8 C         140.4786  140.5731  165.3862 C.ar    1  UNL1        0.0220
      9 C         140.6602  140.4534  166.8703 C.ar    1  UNL1        0.0961
     10 C         138.5087  140.0048  163.6711 C.ar    1  UNL1        0.0209
     11 C         138.4287  138.6938  162.9466 C.ar    1  UNL1        0.0055
     12 C         137.8290  138.6314  161.5731 C.ar    1  UNL1        0.0497
     13 C         137.3094  139.8799  160.9241 C.ar    1  UNL1        0.2223
     14 F         136.7098  139.8174  159.5505 F       1  UNL1       -0.1832
     15 N         137.3894  141.1909  161.6485 N.ar    1  UNL1       -0.2165
     16 C         137.9891  141.2533  163.0221 C.ar    1  UNL1        0.1013
     17 C         142.8472  140.9058  170.1510 C.2     1  UNL1        0.2456
     18 N         143.3785  139.8838  171.1119 N.am    1  UNL1       -0.3252
     19 O         143.4642  142.2716  170.0917 O.2     1  UNL1       -0.2703
     20 H         142.9735  138.9873  171.1507 H       1  UNL1        0.1453
     21 H         144.1322  140.1096  171.7036 H       1  UNL1        0.1453
     22 N         143.0665  141.3772  167.1964 N.pl3   1  UNL1       -0.3327
     23 H         143.5371  142.1004  167.6706 H       1  UNL1        0.1468
     24 C         143.8021  142.8393  165.6638 C.3     1  UNL1        0.0029
     25 C         144.1387  141.6849  164.7672 C.3     1  UNL1        0.0282
     26 C         144.5995  142.7559  163.8236 C.3     1  UNL1        0.0029
     27 C         143.6074  140.8552  165.8983 C.3     1  UNL1        0.0702
     28 C         143.7120  139.4119  165.5034 C.3     1  UNL1        0.0208
     29 C         144.3079  139.3496  164.1283 C.3     1  UNL1        0.0160
     30 C         144.5716  140.7544  163.6733 C.3     1  UNL1        0.0404
     31 C         144.9420  142.0199  162.9584 C.3     1  UNL1        0.0156
     32 N         145.0820  140.0884  162.4299 N.3     1  UNL1       -0.3231
     33 H         144.9933  139.0767  162.5252 H       1  UNL1        0.1188
     34 H         146.0627  140.3322  162.2917 H       1  UNL1        0.1188
@<TRIPOS>BOND
     1    24    25    1
     2    25    26    1
     3    25    27    1
     4    27    22    1
     5    22     1    1
     6     1     2   ar
     7     2    17    1
     8    17    18   am
     9    17    19    2
    10     2     3   ar
    11     3     4   ar
    12     4     5   ar
    13     5     6   ar
    14     6     7   ar
    15     7    10    1
    16    10    11   ar
    17    11    12   ar
    18    12    13   ar
    19    13    14    1
    20    13    15   ar
    21    15    16   ar
    22     7     8   ar
    23     8     9   ar
    24    27    28    1
    25    28    29    1
    26    29    30    1
    27    30    31    1
    28    30    32    1
    29    30    25    1
    30     9     1   ar
    31     9     5   ar
    32    16    10   ar
    33    22    23    1
    34    18    20    1
    35    18    21    1
    36    32    33    1
    37    32    34    1
@<TRIPOS>MOLECULE
*****
 34 37 0 0 0
SMALL
GASTEIGER

@<TRIPOS>ATOM
      1 C         140.5528  140.3636  167.3617 C.ar    1  UNL1        0.0685
      2 C         140.5205  140.6515  168.8334 C.ar    1  UNL1        0.0885
      3 C         141.4942  141.6247  169.4289 C.ar    1  UNL1        0.1263
      4 N         142.5004  142.3101  168.5525 N.ar    1  UNL1       -0.1633
      5 N         142.5327  142.0222  167.0808 N.ar    1  UNL1       -0.2270
      6 C         143.4039  142.5413  165.9755 C.ar    1  UNL1        0.1005
      7 C         142.9685  141.8888  164.6970 C.ar    1  UNL1        0.0222
      8 C         141.8283  140.9665  165.0121 C.ar    1  UNL1        0.0220
      9 C         141.5590  141.0490  166.4854 C.ar    1  UNL1        0.0961
     10 C         143.5681  142.1182  163.3413 C.ar    1  UNL1        0.0209
     11 C         142.7848  142.8439  162.2878 C.ar    1  UNL1        0.0055
     12 C         143.3844  143.0733  160.9321 C.ar    1  UNL1        0.0497
     13 C         144.7673  142.5772  160.6299 C.ar    1  UNL1        0.2223
     14 F         145.3669  142.8066  159.2743 F       1  UNL1       -0.1832
     15 N         145.5507  141.8515  161.6834 N.ar    1  UNL1       -0.2165
     16 C         144.9510  141.6221  163.0391 C.ar    1  UNL1        0.1013
     17 C         139.5143  139.9661  169.7098 C.2     1  UNL1        0.2456
     18 N         139.8606  139.6331  171.1307 N.am    1  UNL1       -0.3252
     19 O         138.1619  139.6136  169.1651 O.2     1  UNL1       -0.2703
     20 H         140.7483  139.8645  171.4882 H       1  UNL1        0.1453
     21 H         139.2003  139.1833  171.7059 H       1  UNL1        0.1453
     22 N         139.5791  139.3903  166.7663 N.pl3   1  UNL1       -0.3327
     23 H         139.3692  138.5525  167.2388 H       1  UNL1        0.1468
     24 C         139.6289  137.8381  165.1489 C.3     1  UNL1        0.0029
     25 C         138.8631  138.7773  164.2649 C.3     1  UNL1        0.0282
     26 C         138.9614  137.6646  163.2638 C.3     1  UNL1        0.0029
     27 C         138.9249  139.6936  165.4508 C.3     1  UNL1        0.0702
     28 C         138.2179  140.9665  165.0905 C.3     1  UNL1        0.0208
     29 C         137.7190  140.8368  163.6818 C.3     1  UNL1        0.0160
     30 C         138.1178  139.4838  163.1716 C.3     1  UNL1        0.0404
     31 C         138.3719  138.2234  162.3991 C.3     1  UNL1        0.0156
     32 N         137.4256  139.9268  161.9168 N.3     1  UNL1       -0.3231
     33 H         137.0583  140.8696  162.0458 H       1  UNL1        0.1188
     34 H         136.6579  139.2883  161.7084 H       1  UNL1        0.1188
@<TRIPOS>BOND
     1    24    25    1
     2    25    26    1
     3    25    27    1
     4    27    22    1
     5    22     1    1
     6     1     2   ar
     7     2    17    1
     8    17    18   am
     9    17    19    2
    10     2     3   ar
    11     3     4   ar
    12     4     5   ar
    13     5     6   ar
    14     6     7   ar
    15     7    10    1
    16    10    11   ar
    17    11    12   ar
    18    12    13   ar
    19    13    14    1
    20    13    15   ar
    21    15    16   ar
    22     7     8   ar
    23     8     9   ar
    24    27    28    1
    25    28    29    1
    26    29    30    1
    27    30    31    1
    28    30    32    1
    29    30    25    1
    30     9     1   ar
    31     9     5   ar
    32    16    10   ar
    33    22    23    1
    34    18    20    1
    35    18    21    1
    36    32    33    1
    37    32    34    1
@<TRIPOS>MOLECULE
*****
 34 37 0 0 0
SMALL
GASTEIGER

@<TRIPOS>ATOM
      1 C         138.2760  140.4237  162.7163 C.ar    1  UNL1        0.0685
      2 C         138.1289  139.2674  161.7723 C.ar    1  UNL1        0.0885
      3 C         138.4283  137.8742  162.2405 C.ar    1  UNL1        0.1263
      4 N         138.8748  137.6373  163.6529 N.ar    1  UNL1       -0.1633
      5 N         139.0219  138.7937  164.5968 N.ar    1  UNL1       -0.2270
      6 C         139.4404  138.8680  166.0353 C.ar    1  UNL1        0.1005
      7 C         139.3996  140.3072  166.4561 C.ar    1  UNL1        0.0222
      8 C         138.9559  141.1224  165.2776 C.ar    1  UNL1        0.0220
      9 C         138.7225  140.1869  164.1285 C.ar    1  UNL1        0.0961
     10 C         139.7424  140.8382  167.8165 C.ar    1  UNL1        0.0209
     11 C         140.5477  142.0966  167.9494 C.ar    1  UNL1        0.0055
     12 C         140.8904  142.6275  169.3099 C.ar    1  UNL1        0.0497
     13 C         140.4278  141.8999  170.5373 C.ar    1  UNL1        0.2223
     14 F         140.7705  142.4309  171.8977 F       1  UNL1       -0.1832
     15 N         139.6225  140.6415  170.4044 N.ar    1  UNL1       -0.2165
     16 C         139.2798  140.1106  169.0439 C.ar    1  UNL1        0.1013
     17 C         137.6823  139.5043  160.3600 C.2     1  UNL1        0.2456
     18 N         136.2190  139.5409  160.0323 N.am    1  UNL1       -0.3252
     19 O         138.6990  139.7045  159.2755 O.2     1  UNL1       -0.2703
     20 H         135.5517  139.4094  160.7441 H       1  UNL1        0.1453
     21 H         135.9259  139.6964  159.1054 H       1  UNL1        0.1453
     22 N         137.9765  141.8170  162.2480 N.pl3   1  UNL1       -0.3327
     23 H         137.0500  142.1498  162.2538 H       1  UNL1        0.1468
     24 C         137.9673  143.9798  162.8394 C.3     1  UNL1        0.0029
     25 C         139.2407  144.1654  162.0687 C.3     1  UNL1        0.0282
     26 C         139.1264  145.5888  162.5278 C.3     1  UNL1        0.0029
     27 C         139.0888  142.7031  161.7708 C.3     1  UNL1        0.0702
     28 C         140.2445  142.2826  160.9120 C.3     1  UNL1        0.0208
     29 C         141.1106  143.4849  160.6791 C.3     1  UNL1        0.0160
     30 C         140.4902  144.6485  161.3940 C.3     1  UNL1        0.0404
     31 C         140.1146  145.9710  161.9941 C.3     1  UNL1        0.0156
     32 N         141.6612  145.4082  160.8448 N.3     1  UNL1       -0.3231
     33 H         142.2476  144.7790  160.2964 H       1  UNL1        0.1188
     34 H         142.2061  145.7962  161.6147 H       1  UNL1        0.1188
@<TRIPOS>BOND
     1    24    25    1
     2    25    26    1
     3    25    27    1
     4    27    22    1
     5    22     1    1
     6     1     2   ar
     7     2    17    1
     8    17    18   am
     9    17    19    2
    10     2     3   ar
    11     3     4   ar
    12     4     5   ar
    13     5     6   ar
    14     6     7   ar
    15     7    10    1
    16    10    11   ar
    17    11    12   ar
    18    12    13   ar
    19    13    14    1
    20    13    15   ar
    21    15    16   ar
    22     7     8   ar
    23     8     9   ar
    24    27    28    1
    25    28    29    1
    26    29    30    1
    27    30    31    1
    28    30    32    1
    29    30    25    1
    30     9     1   ar
    31     9     5   ar
    32    16    10   ar
    33    22    23    1
    34    18    20    1
    35    18    21    1
    36    32    33    1
    37    32    34    1
@<TRIPOS>MOLECULE
*****
 34 37 0 0 0
SMALL
GASTEIGER

@<TRIPOS>ATOM
      1 C         140.7723  140.0931  166.8438 C.ar    1  UNL1        0.0685
      2 C         141.2968  139.9000  168.2358 C.ar    1  UNL1        0.0885
      3 C         142.6327  139.2529  168.4509 C.ar    1  UNL1        0.1263
      4 N         143.4443  138.7987  167.2739 N.ar    1  UNL1       -0.1633
      5 N         142.9199  138.9918  165.8819 N.ar    1  UNL1       -0.2270
      6 C         143.4904  138.6485  164.5378 C.ar    1  UNL1        0.1005
      7 C         142.5069  139.0835  163.4921 C.ar    1  UNL1        0.0222
      8 C         141.3286  139.6957  164.1899 C.ar    1  UNL1        0.0220
      9 C         141.5838  139.6390  165.6669 C.ar    1  UNL1        0.0961
     10 C         142.6727  138.9328  162.0089 C.ar    1  UNL1        0.0209
     11 C         141.5264  138.4483  161.1715 C.ar    1  UNL1        0.0055
     12 C         141.6922  138.2976  159.6883 C.ar    1  UNL1        0.0497
     13 C         143.0042  138.6315  159.0425 C.ar    1  UNL1        0.2223
     14 F         143.1700  138.4808  157.5593 F       1  UNL1       -0.1832
     15 N         144.1505  139.1160  159.8799 N.ar    1  UNL1       -0.2165
     16 C         143.9847  139.2667  161.3631 C.ar    1  UNL1        0.1013
     17 C         140.4852  140.3541  169.4128 C.2     1  UNL1        0.2456
     18 N         140.3729  139.4817  170.6278 N.am    1  UNL1       -0.3252
     19 O         139.7859  141.6805  169.3747 O.2     1  UNL1       -0.2703
     20 H         140.8319  138.6111  170.6528 H       1  UNL1        0.1453
     21 H         139.8402  139.7797  171.4002 H       1  UNL1        0.1453
     22 N         139.4363  140.7403  166.6288 N.pl3   1  UNL1       -0.3327
     23 H         138.6301  140.3540  167.0412 H       1  UNL1        0.1468
     24 C         138.0352  140.7377  164.8782 C.3     1  UNL1        0.0029
     25 C         138.4474  142.1497  164.5840 C.3     1  UNL1        0.0282
     26 C         137.4801  142.0279  163.4441 C.3     1  UNL1        0.0029
     27 C         139.3286  141.9761  165.7854 C.3     1  UNL1        0.0702
     28 C         140.0833  143.2554  165.9954 C.3     1  UNL1        0.0208
     29 C         139.6684  144.2194  164.9238 C.3     1  UNL1        0.0160
     30 C         138.6575  143.5360  164.0515 C.3     1  UNL1        0.0404
     31 C         137.6462  143.1245  163.0229 C.3     1  UNL1        0.0156
     32 N         138.6561  144.8365  163.3039 N.3     1  UNL1       -0.3231
     33 H         139.3076  145.4842  163.7472 H       1  UNL1        0.1188
     34 H         137.7175  145.2357  163.3178 H       1  UNL1        0.1188
@<TRIPOS>BOND
     1    24    25    1
     2    25    26    1
     3    25    27    1
     4    27    22    1
     5    22     1    1
     6     1     2   ar
     7     2    17    1
     8    17    18   am
     9    17    19    2
    10     2     3   ar
    11     3     4   ar
    12     4     5   ar
    13     5     6   ar
    14     6     7   ar
    15     7    10    1
    16    10    11   ar
    17    11    12   ar
    18    12    13   ar
    19    13    14    1
    20    13    15   ar
    21    15    16   ar
    22     7     8   ar
    23     8     9   ar
    24    27    28    1
    25    28    29    1
    26    29    30    1
    27    30    31    1
    28    30    32    1
    29    30    25    1
    30     9     1   ar
    31     9     5   ar
    32    16    10   ar
    33    22    23    1
    34    18    20    1
    35    18    21    1
    36    32    33    1
    37    32    34    1
@<TRIPOS>MOLECULE
*****
 34 37 0 0 0
SMALL
GASTEIGER

@<TRIPOS>ATOM
      1 C         140.2854  140.3720  166.0711 C.ar    1  UNL1        0.0685
      2 C         139.4923  140.0039  167.2899 C.ar    1  UNL1        0.0885
      3 C         138.4208  138.9583  167.1999 C.ar    1  UNL1        0.1263
      4 N         138.1421  138.2805  165.8910 N.ar    1  UNL1       -0.1633
      5 N         138.9352  138.6485  164.6722 N.ar    1  UNL1       -0.2270
      6 C         138.8866  138.1553  163.2565 C.ar    1  UNL1        0.1005
      7 C         139.9282  138.8962  162.4715 C.ar    1  UNL1        0.0222
      8 C         140.6205  139.8473  163.4021 C.ar    1  UNL1        0.0220
      9 C         140.0069  139.6942  164.7622 C.ar    1  UNL1        0.0961
     10 C         140.2252  138.7174  161.0121 C.ar    1  UNL1        0.0209
     11 C         141.6328  138.4661  160.5585 C.ar    1  UNL1        0.0055
     12 C         141.9298  138.2873  159.0991 C.ar    1  UNL1        0.0497
     13 C         140.8193  138.3598  158.0933 C.ar    1  UNL1        0.2223
     14 F         141.1164  138.1810  156.6339 F       1  UNL1       -0.1832
     15 N         139.4118  138.6110  158.5469 N.ar    1  UNL1       -0.2165
     16 C         139.1148  138.7898  160.0063 C.ar    1  UNL1        0.1013
     17 C         139.7709  140.6817  168.5988 C.2     1  UNL1        0.2456
     18 N         139.6458  139.9150  169.8819 N.am    1  UNL1       -0.3252
     19 O         140.1746  142.1261  168.6245 O.2     1  UNL1       -0.2703
     20 H         139.3808  138.9670  169.8650 H       1  UNL1        0.1453
     21 H         139.8286  140.3598  170.7410 H       1  UNL1        0.1453
     22 N         141.3570  141.4177  166.1611 N.pl3   1  UNL1       -0.3327
     23 H         142.1444  141.2677  166.7328 H       1  UNL1        0.1468
     24 C         143.2057  142.3512  165.3017 C.3     1  UNL1        0.0029
     25 C         142.3534  143.4495  164.7383 C.3     1  UNL1        0.0282
     26 C         143.6559  143.9774  164.2143 C.3     1  UNL1        0.0029
     27 C         141.2290  142.6920  165.3801 C.3     1  UNL1        0.0702
     28 C         139.9541  143.4324  165.1038 C.3     1  UNL1        0.0208
     29 C         140.2905  144.6475  164.2913 C.3     1  UNL1        0.0160
     30 C         141.7734  144.6580  164.0654 C.3     1  UNL1        0.0404
     31 C         143.1972  144.9333  163.6821 C.3     1  UNL1        0.0156
     32 N         141.4910  145.9242  163.3123 N.3     1  UNL1       -0.3231
     33 H         140.4901  146.1191  163.3380 H       1  UNL1        0.1188
     34 H         141.7920  145.8179  162.3436 H       1  UNL1        0.1188
@<TRIPOS>BOND
     1    24    25    1
     2    25    26    1
     3    25    27    1
     4    27    22    1
     5    22     1    1
     6     1     2   ar
     7     2    17    1
     8    17    18   am
     9    17    19    2
    10     2     3   ar
    11     3     4   ar
    12     4     5   ar
    13     5     6   ar
    14     6     7   ar
    15     7    10    1
    16    10    11   ar
    17    11    12   ar
    18    12    13   ar
    19    13    14    1
    20    13    15   ar
    21    15    16   ar
    22     7     8   ar
    23     8     9   ar
    24    27    28    1
    25    28    29    1
    26    29    30    1
    27    30    31    1
    28    30    32    1
    29    30    25    1
    30     9     1   ar
    31     9     5   ar
    32    16    10   ar
    33    22    23    1
    34    18    20    1
    35    18    21    1
    36    32    33    1
    37    32    34    1
@<TRIPOS>MOLECULE
*****
 34 37 0 0 0
SMALL
GASTEIGER

@<TRIPOS>ATOM
      1 C         142.2228  140.8892  167.0388 C.ar    1  UNL1        0.0685
      2 C         141.9513  140.8683  168.5139 C.ar    1  UNL1        0.0885
      3 C         141.0292  141.8835  169.1212 C.ar    1  UNL1        0.1263
      4 N         140.3785  142.9197  168.2535 N.ar    1  UNL1       -0.1633
      5 N         140.6499  142.9406  166.7784 N.ar    1  UNL1       -0.2270
      6 C         140.1567  143.8348  165.6797 C.ar    1  UNL1        0.1005
      7 C         140.7741  143.3722  164.3933 C.ar    1  UNL1        0.0222
      8 C         141.6488  142.1921  164.6970 C.ar    1  UNL1        0.0220
      9 C         141.5721  141.9253  166.1711 C.ar    1  UNL1        0.0961
     10 C         140.5551  143.9825  163.0407 C.ar    1  UNL1        0.0209
     11 C         140.7922  143.1684  161.8033 C.ar    1  UNL1        0.0055
     12 C         140.5732  143.7788  160.4507 C.ar    1  UNL1        0.0497
     13 C         140.1172  145.2032  160.3354 C.ar    1  UNL1        0.2223
     14 F         139.8983  145.8135  158.9828 F       1  UNL1       -0.1832
     15 N         139.8802  146.0172  161.5728 N.ar    1  UNL1       -0.2165
     16 C         140.0991  145.4068  162.9254 C.ar    1  UNL1        0.1013
     17 C         142.6021  139.8320  169.3816 C.2     1  UNL1        0.2456
     18 N         142.8140  140.1022  170.8417 N.am    1  UNL1       -0.3252
     19 O         143.0408  138.5258  168.7891 O.2     1  UNL1       -0.2703
     20 H         142.5260  140.9596  171.2306 H       1  UNL1        0.1453
     21 H         143.2411  139.4222  171.4113 H       1  UNL1        0.1453
     22 N         143.1450  139.8739  166.4314 N.pl3   1  UNL1       -0.3327
     23 H         144.0461  139.7416  166.8051 H       1  UNL1        0.1468
     24 C         144.3854  139.8917  164.5637 C.3     1  UNL1        0.0029
     25 C         143.3968  138.9559  163.9336 C.3     1  UNL1        0.0282
     26 C         144.3063  139.0472  162.7443 C.3     1  UNL1        0.0029
     27 C         142.6941  139.0602  165.2547 C.3     1  UNL1        0.0702
     28 C         141.4612  138.2080  165.1925 C.3     1  UNL1        0.0208
     29 C         141.4021  137.5770  163.8330 C.3     1  UNL1        0.0160
     30 C         142.5984  138.0392  163.0550 C.3     1  UNL1        0.0404
     31 C         143.6747  138.3222  162.0493 C.3     1  UNL1        0.0156
     32 N         142.0249  137.1817  161.9661 N.3     1  UNL1       -0.3231
     33 H         141.1624  136.7471  162.2942 H       1  UNL1        0.1188
     34 H         142.6968  136.4565  161.7149 H       1  UNL1        0.1188
@<TRIPOS>BOND
     1    24    25    1
     2    25    26    1
     3    25    27    1
     4    27    22    1
     5    22     1    1
     6     1     2   ar
     7     2    17    1
     8    17    18   am
     9    17    19    2
    10     2     3   ar
    11     3     4   ar
    12     4     5   ar
    13     5     6   ar
    14     6     7   ar
    15     7    10    1
    16    10    11   ar
    17    11    12   ar
    18    12    13   ar
    19    13    14    1
    20    13    15   ar
    21    15    16   ar
    22     7     8   ar
    23     8     9   ar
    24    27    28    1
    25    28    29    1
    26    29    30    1
    27    30    31    1
    28    30    32    1
    29    30    25    1
    30     9     1   ar
    31     9     5   ar
    32    16    10   ar
    33    22    23    1
    34    18    20    1
    35    18    21    1
    36    32    33    1
    37    32    34    1
@<TRIPOS>MOLECULE
*****
 34 37 0 0 0
SMALL
GASTEIGER

@<TRIPOS>ATOM
      1 C         142.5187  140.0121  162.1174 C.ar    1  UNL1        0.0685
      2 C         142.3137  139.1196  160.9293 C.ar    1  UNL1        0.0885
      3 C         141.5808  137.8203  161.0849 C.ar    1  UNL1        0.1263
      4 N         141.0527  137.4132  162.4286 N.ar    1  UNL1       -0.1633
      5 N         141.2576  138.3057  163.6167 N.ar    1  UNL1       -0.2270
      6 C         140.8537  138.1707  165.0550 C.ar    1  UNL1        0.1005
      7 C         141.3370  139.3867  165.7882 C.ar    1  UNL1        0.0222
      8 C         142.0397  140.2732  164.8032 C.ar    1  UNL1        0.0220
      9 C         141.9906  139.6051  163.4611 C.ar    1  UNL1        0.0961
     10 C         141.1505  139.6670  167.2499 C.ar    1  UNL1        0.0209
     11 C         139.8110  140.1035  167.7649 C.ar    1  UNL1        0.0055
     12 C         139.6245  140.3838  169.2267 C.ar    1  UNL1        0.0497
     13 C         140.7775  140.2276  170.1734 C.ar    1  UNL1        0.2223
     14 F         140.5909  140.5079  171.6352 F       1  UNL1       -0.1832
     15 N         142.1169  139.7911  169.6585 N.ar    1  UNL1       -0.2165
     16 C         142.3034  139.5108  168.1967 C.ar    1  UNL1        0.1013
     17 C         142.8419  139.5267  159.5856 C.2     1  UNL1        0.2456
     18 N         143.3827  138.4893  158.6467 N.am    1  UNL1       -0.3252
     19 O         142.8291  140.9709  159.1808 O.2     1  UNL1       -0.2703
     20 H         143.3910  137.5414  158.9124 H       1  UNL1        0.1453
     21 H         143.7293  138.7564  157.7648 H       1  UNL1        0.1453
     22 N         143.2517  141.3115  161.9617 N.pl3   1  UNL1       -0.3327
     23 H         144.1998  141.3132  161.6965 H       1  UNL1        0.1468
     24 C         144.2266  142.8476  163.2723 C.3     1  UNL1        0.0029
     25 C         143.0418  143.7416  163.0554 C.3     1  UNL1        0.0282
     26 C         143.7912  144.6877  163.9459 C.3     1  UNL1        0.0029
     27 C         142.5401  142.6085  162.2102 C.3     1  UNL1        0.0702
     28 C         141.2019  142.9999  161.6571 C.3     1  UNL1        0.0208
     29 C         140.8765  144.3750  162.1604 C.3     1  UNL1        0.0160
     30 C         142.0137  144.8333  163.0246 C.3     1  UNL1        0.0404
     31 C         142.9780  145.5513  163.9216 C.3     1  UNL1        0.0156
     32 N         141.1871  146.0752  163.1814 N.3     1  UNL1       -0.3231
     33 H         140.3224  145.9775  162.6493 H       1  UNL1        0.1188
     34 H         141.7111  146.8784  162.8342 H       1  UNL1        0.1188
@<TRIPOS>BOND
     1    24    25    1
     2    25    26    1
     3    25    27    1
     4    27    22    1
     5    22     1    1
     6     1     2   ar
     7     2    17    1
     8    17    18   am
     9    17    19    2
    10     2     3   ar
    11     3     4   ar
    12     4     5   ar
    13     5     6   ar
    14     6     7   ar
    15     7    10    1
    16    10    11   ar
    17    11    12   ar
    18    12    13   ar
    19    13    14    1
    20    13    15   ar
    21    15    16   ar
    22     7     8   ar
    23     8     9   ar
    24    27    28    1
    25    28    29    1
    26    29    30    1
    27    30    31    1
    28    30    32    1
    29    30    25    1
    30     9     1   ar
    31     9     5   ar
    32    16    10   ar
    33    22    23    1
    34    18    20    1
    35    18    21    1
    36    32    33    1
    37    32    34    1
@<TRIPOS>MOLECULE
*****
 34 37 0 0 0
SMALL
GASTEIGER

@<TRIPOS>ATOM
      1 C         141.2070  143.5139  162.1591 C.ar    1  UNL1        0.0685
      2 C         140.7122  144.6330  161.2915 C.ar    1  UNL1        0.0885
      3 C         139.6989  145.6026  161.8234 C.ar    1  UNL1        0.1263
      4 N         139.1803  145.4531  163.2230 N.ar    1  UNL1       -0.1633
      5 N         139.6751  144.3340  164.0906 N.ar    1  UNL1       -0.2270
      6 C         139.3489  143.9371  165.4999 C.ar    1  UNL1        0.1005
      7 C         140.1607  142.7221  165.8389 C.ar    1  UNL1        0.0222
      8 C         140.9885  142.3682  164.6392 C.ar    1  UNL1        0.0220
      9 C         140.6885  143.3644  163.5587 C.ar    1  UNL1        0.0961
     10 C         140.1470  141.9897  167.1478 C.ar    1  UNL1        0.0209
     11 C         140.5801  142.6881  168.4027 C.ar    1  UNL1        0.0055
     12 C         140.5664  141.9556  169.7116 C.ar    1  UNL1        0.0497
     13 C         140.1195  140.5247  169.7657 C.ar    1  UNL1        0.2223
     14 F         140.1058  139.7923  171.0747 F       1  UNL1       -0.1832
     15 N         139.6864  139.8263  168.5109 N.ar    1  UNL1       -0.2165
     16 C         139.7001  140.5589  167.2020 C.ar    1  UNL1        0.1013
     17 C         141.2308  144.7824  159.8919 C.2     1  UNL1        0.2456
     18 N         140.3356  145.3170  158.8135 N.am    1  UNL1       -0.3252
     19 O         142.6444  144.3973  159.5707 O.2     1  UNL1       -0.2703
     20 H         139.4078  145.5698  159.0244 H       1  UNL1        0.1453
     21 H         140.6759  145.4151  157.8950 H       1  UNL1        0.1453
     22 N         142.2203  142.5442  161.6271 N.pl3   1  UNL1       -0.3327
     23 H         143.0771  142.8734  161.2711 H       1  UNL1        0.1468
     24 C         143.8880  141.1123  162.0701 C.3     1  UNL1        0.0029
     25 C         142.9174  139.9795  161.9128 C.3     1  UNL1        0.0282
     26 C         144.1096  139.1230  162.2210 C.3     1  UNL1        0.0029
     27 C         141.9282  141.0729  161.6376 C.3     1  UNL1        0.0702
     28 C         140.5954  140.4368  161.3746 C.3     1  UNL1        0.0208
     29 C         140.7611  138.9502  161.4874 C.3     1  UNL1        0.0160
     30 C         142.1961  138.6677  161.8200 C.3     1  UNL1        0.0404
     31 C         143.5391  138.0854  162.1475 C.3     1  UNL1        0.0156
     32 N         141.7556  137.2340  161.7956 N.3     1  UNL1       -0.3231
     33 H         140.7603  137.1878  161.5773 H       1  UNL1        0.1188
     34 H         141.9234  136.8112  162.7086 H       1  UNL1        0.1188
@<TRIPOS>BOND
     1    24    25    1
     2    25    26    1
     3    25    27    1
     4    27    22    1
     5    22     1    1
     6     1     2   ar
     7     2    17    1
     8    17    18   am
     9    17    19    2
    10     2     3   ar
    11     3     4   ar
    12     4     5   ar
    13     5     6   ar
    14     6     7   ar
    15     7    10    1
    16    10    11   ar
    17    11    12   ar
    18    12    13   ar
    19    13    14    1
    20    13    15   ar
    21    15    16   ar
    22     7     8   ar
    23     8     9   ar
    24    27    28    1
    25    28    29    1
    26    29    30    1
    27    30    31    1
    28    30    32    1
    29    30    25    1
    30     9     1   ar
    31     9     5   ar
    32    16    10   ar
    33    22    23    1
    34    18    20    1
    35    18    21    1
    36    32    33    1
    37    32    34    1
@<TRIPOS>MOLECULE
*****
 34 37 0 0 0
SMALL
GASTEIGER

@<TRIPOS>ATOM
      1 C         140.6464  139.9067  162.0033 C.ar    1  UNL1        0.0685
      2 C         139.8420  139.1304  161.0032 C.ar    1  UNL1        0.0885
      3 C         138.9115  138.0489  161.4663 C.ar    1  UNL1        0.1263
      4 N         138.7854  137.7436  162.9295 N.ar    1  UNL1       -0.1633
      5 N         139.5898  138.5200  163.9296 N.ar    1  UNL1       -0.2270
      6 C         139.6747  138.4445  165.4253 C.ar    1  UNL1        0.1005
      7 C         140.6577  139.4793  165.8866 C.ar    1  UNL1        0.0222
      8 C         141.1803  140.1944  164.6760 C.ar    1  UNL1        0.0220
      9 C         140.5203  139.6015  163.4665 C.ar    1  UNL1        0.0961
     10 C         141.0493  139.7514  167.3087 C.ar    1  UNL1        0.0209
     11 C         139.9942  140.0392  168.3353 C.ar    1  UNL1        0.0055
     12 C         140.3860  140.3112  169.7575 C.ar    1  UNL1        0.0497
     13 C         141.8328  140.2954  170.1531 C.ar    1  UNL1        0.2223
     14 F         142.2244  140.5675  171.5753 F       1  UNL1       -0.1832
     15 N         142.8879  140.0076  169.1266 N.ar    1  UNL1       -0.2165
     16 C         142.4961  139.7356  167.7044 C.ar    1  UNL1        0.1013
     17 C         139.9681  139.4356  159.5400 C.2     1  UNL1        0.2456
     18 N         138.7391  139.5330  158.6856 N.am    1  UNL1       -0.3252
     19 O         141.3231  139.6435  158.9313 O.2     1  UNL1       -0.2703
     20 H         137.8497  139.3966  159.0851 H       1  UNL1        0.1453
     21 H         138.8218  139.7333  157.7252 H       1  UNL1        0.1453
     22 N         141.5769  140.9882  161.5402 N.pl3   1  UNL1       -0.3327
     23 H         142.2854  140.7823  160.8884 H       1  UNL1        0.1468
     24 C         143.4174  142.1240  162.1319 C.3     1  UNL1        0.0029
     25 C         142.5443  143.2832  162.5110 C.3     1  UNL1        0.0282
     26 C         143.8432  143.9404  162.8726 C.3     1  UNL1        0.0029
     27 C         141.4279  142.3836  162.0702 C.3     1  UNL1        0.0702
     28 C         140.1363  143.1243  162.2524 C.3     1  UNL1        0.0208
     29 C         140.4545  144.4816  162.8059 C.3     1  UNL1        0.0160
     30 C         141.9427  144.5798  162.9657 C.3     1  UNL1        0.0404
     31 C         143.3674  144.9660  163.2322 C.3     1  UNL1        0.0156
     32 N         141.6389  145.9573  163.4761 N.3     1  UNL1       -0.3231
     33 H         140.6312  146.1133  163.4543 H       1  UNL1        0.1188
     34 H         142.1028  146.6483  162.8864 H       1  UNL1        0.1188
@<TRIPOS>BOND
     1    24    25    1
     2    25    26    1
     3    25    27    1
     4    27    22    1
     5    22     1    1
     6     1     2   ar
     7     2    17    1
     8    17    18   am
     9    17    19    2
    10     2     3   ar
    11     3     4   ar
    12     4     5   ar
    13     5     6   ar
    14     6     7   ar
    15     7    10    1
    16    10    11   ar
    17    11    12   ar
    18    12    13   ar
    19    13    14    1
    20    13    15   ar
    21    15    16   ar
    22     7     8   ar
    23     8     9   ar
    24    27    28    1
    25    28    29    1
    26    29    30    1
    27    30    31    1
    28    30    32    1
    29    30    25    1
    30     9     1   ar
    31     9     5   ar
    32    16    10   ar
    33    22    23    1
    34    18    20    1
    35    18    21    1
    36    32    33    1
    37    32    34    1
