@<TRIPOS>MOLECULE
*****
 19 20 0 0 0
SMALL
GASTEIGER

@<TRIPOS>ATOM
      1 C         140.5084  140.3916  167.2548 C.ar    1  UNL1        0.0511
      2 C         141.8768  139.9013  166.8849 C.ar    1  UNL1        0.0163
      3 C         142.7626  139.2906  167.9301 C.ar    1  UNL1        0.0253
      4 C         142.2800  139.1704  169.3452 C.ar    1  UNL1        0.1365
      5 C         140.9116  139.6607  169.7151 C.ar    1  UNL1        0.1541
      6 O         140.4289  139.5405  171.1302 O.3     1  UNL1       -0.5039
      7 C         140.0258  140.2714  168.6699 C.ar    1  UNL1        0.0527
      8 H         140.9822  139.1591  171.7832 H       1  UNL1        0.2923
      9 C         138.5449  140.1806  165.5666 C.3     1  UNL1        0.1122
     10 N         139.6226  141.0022  166.2096 N.pl3   1  UNL1       -0.3040
     11 C         139.8144  142.4345  165.8073 C.3     1  UNL1        0.1122
     12 N         143.1658  138.5598  170.3904 N.2     1  UNL1       -0.1435
     13 N         143.7229  137.1816  170.1895 N.2     1  UNL1       -0.1284
     14 C         144.6087  136.5710  171.2347 C.ar    1  UNL1        0.1838
     15 C         144.4753  135.1159  171.5741 C.ar    1  UNL1        0.0406
     16 C         145.3611  134.5053  172.6193 C.ar    1  UNL1        0.0048
     17 C         146.3803  135.3498  173.3251 C.ar    1  UNL1        0.0208
     18 C         146.5137  136.8047  172.9858 C.ar    1  UNL1        0.1006
     19 N         145.6279  137.4154  171.9406 N.ar    1  UNL1       -0.2236
@<TRIPOS>BOND
     1     9    10    1
     2    10    11    1
     3    10     1    1
     4     1     2   ar
     5     2     3   ar
     6     3     4   ar
     7     4    12    1
     8    12    13    2
     9    13    14    1
    10    14    15   ar
    11    15    16   ar
    12    16    17   ar
    13    17    18   ar
    14    18    19   ar
    15     4     5   ar
    16     5     6    1
    17     5     7   ar
    18     7     1   ar
    19    19    14   ar
    20     6     8    1
@<TRIPOS>MOLECULE
*****
 19 20 0 0 0
SMALL
GASTEIGER

@<TRIPOS>ATOM
      1 C         140.4323  141.8475  167.3711 C.ar    1  UNL1        0.0511
      2 C         140.5055  142.3848  168.7697 C.ar    1  UNL1        0.0163
      3 C         139.7857  141.6814  169.8820 C.ar    1  UNL1        0.0253
      4 C         138.9927  140.4408  169.5957 C.ar    1  UNL1        0.1365
      5 C         138.9195  139.9035  168.1972 C.ar    1  UNL1        0.1541
      6 O         138.1265  138.6628  167.9108 O.3     1  UNL1       -0.5039
      7 C         139.6393  140.6069  167.0849 C.ar    1  UNL1        0.0527
      8 H         137.6769  138.2234  168.6056 H       1  UNL1        0.2923
      9 C         140.3952  143.4484  165.3252 C.3     1  UNL1        0.1122
     10 N         141.1521  142.5509  166.2589 N.pl3   1  UNL1       -0.3040
     11 C         142.6286  142.3568  166.0802 C.3     1  UNL1        0.1122
     12 N         138.2729  139.7374  170.7080 N.2     1  UNL1       -0.1435
     13 N         137.2195  138.7172  170.3926 N.2     1  UNL1       -0.1284
     14 C         136.4998  138.0138  171.5049 C.ar    1  UNL1        0.1838
     15 C         135.2787  138.6331  172.1178 C.ar    1  UNL1        0.0406
     16 C         134.5589  137.9297  173.2301 C.ar    1  UNL1        0.0048
     17 C         135.0602  136.6070  173.7294 C.ar    1  UNL1        0.0208
     18 C         136.2812  135.9878  173.1165 C.ar    1  UNL1        0.1006
     19 N         137.0010  136.6912  172.0043 N.ar    1  UNL1       -0.2236
@<TRIPOS>BOND
     1     9    10    1
     2    10    11    1
     3    10     1    1
     4     1     2   ar
     5     2     3   ar
     6     3     4   ar
     7     4    12    1
     8    12    13    2
     9    13    14    1
    10    14    15   ar
    11    15    16   ar
    12    16    17   ar
    13    17    18   ar
    14    18    19   ar
    15     4     5   ar
    16     5     6    1
    17     5     7   ar
    18     7     1   ar
    19    19    14   ar
    20     6     8    1
@<TRIPOS>MOLECULE
*****
 19 20 0 0 0
SMALL
GASTEIGER

@<TRIPOS>ATOM
      1 C         143.6437  142.6387  160.3998 C.ar    1  UNL1        0.0511
      2 C         142.3687  142.4095  161.1559 C.ar    1  UNL1        0.0163
      3 C         142.4153  141.9894  162.5951 C.ar    1  UNL1        0.0253
      4 C         143.7369  141.7987  163.2783 C.ar    1  UNL1        0.1365
      5 C         145.0120  142.0280  162.5223 C.ar    1  UNL1        0.1541
      6 O         146.3337  141.8372  163.2055 O.3     1  UNL1       -0.5039
      7 C         144.9654  142.4480  161.0830 C.ar    1  UNL1        0.0527
      8 H         146.3629  141.5748  164.1045 H       1  UNL1        0.2923
      9 C         142.4961  143.9548  158.4761 C.3     1  UNL1        0.1122
     10 N         143.5971  143.0588  158.9606 N.pl3   1  UNL1       -0.3040
     11 C         144.6515  142.5828  158.0059 C.3     1  UNL1        0.1122
     12 N         143.7836  141.3786  164.7175 N.2     1  UNL1       -0.1435
     13 N         142.9348  142.0849  165.7328 N.2     1  UNL1       -0.1284
     14 C         142.9815  141.6649  167.1721 C.ar    1  UNL1        0.1838
     15 C         142.5025  140.3005  167.5710 C.ar    1  UNL1        0.0406
     16 C         142.5491  139.8804  169.0103 C.ar    1  UNL1        0.0048
     17 C         143.0747  140.8248  170.0505 C.ar    1  UNL1        0.0208
     18 C         143.5536  142.1891  169.6515 C.ar    1  UNL1        0.1006
     19 N         143.5070  142.6091  168.2123 N.ar    1  UNL1       -0.2236
@<TRIPOS>BOND
     1     9    10    1
     2    10    11    1
     3    10     1    1
     4     1     2   ar
     5     2     3   ar
     6     3     4   ar
     7     4    12    1
     8    12    13    2
     9    13    14    1
    10    14    15   ar
    11    15    16   ar
    12    16    17   ar
    13    17    18   ar
    14    18    19   ar
    15     4     5   ar
    16     5     6    1
    17     5     7   ar
    18     7     1   ar
    19    19    14   ar
    20     6     8    1
@<TRIPOS>MOLECULE
*****
 19 20 0 0 0
SMALL
GASTEIGER

@<TRIPOS>ATOM
      1 C         140.6945  146.1047  156.3720 C.ar    1  UNL1        0.0511
      2 C         141.9584  145.3109  156.2228 C.ar    1  UNL1        0.0163
      3 C         142.5299  144.5819  157.4026 C.ar    1  UNL1        0.0253
      4 C         141.8376  144.6468  158.7316 C.ar    1  UNL1        0.1365
      5 C         140.5737  145.4406  158.8808 C.ar    1  UNL1        0.1541
      6 O         139.8812  145.5055  160.2099 O.3     1  UNL1       -0.5039
      7 C         140.0022  146.1696  157.7010 C.ar    1  UNL1        0.0527
      8 H         140.2382  145.0501  160.9469 H       1  UNL1        0.2923
      9 C         140.7545  146.6836  153.8400 C.3     1  UNL1        0.1122
     10 N         140.1230  146.8337  155.1922 N.pl3   1  UNL1       -0.3040
     11 C         138.9200  147.7129  155.3647 C.3     1  UNL1        0.1122
     12 N         142.4091  143.9178  159.9114 N.2     1  UNL1       -0.1435
     13 N         142.6117  144.6377  161.2116 N.2     1  UNL1       -0.1284
     14 C         143.1832  143.9087  162.3914 C.ar    1  UNL1        0.1838
     15 C         143.5847  144.6692  163.6205 C.ar    1  UNL1        0.0406
     16 C         144.1562  143.9402  164.8003 C.ar    1  UNL1        0.0048
     17 C         144.3263  142.4507  164.7510 C.ar    1  UNL1        0.0208
     18 C         143.9248  141.6902  163.5220 C.ar    1  UNL1        0.1006
     19 N         143.3533  142.4192  162.3422 N.ar    1  UNL1       -0.2236
@<TRIPOS>BOND
     1     9    10    1
     2    10    11    1
     3    10     1    1
     4     1     2   ar
     5     2     3   ar
     6     3     4   ar
     7     4    12    1
     8    12    13    2
     9    13    14    1
    10    14    15   ar
    11    15    16   ar
    12    16    17   ar
    13    17    18   ar
    14    18    19   ar
    15     4     5   ar
    16     5     6    1
    17     5     7   ar
    18     7     1   ar
    19    19    14   ar
    20     6     8    1
@<TRIPOS>MOLECULE
*****
 19 20 0 0 0
SMALL
GASTEIGER

@<TRIPOS>ATOM
      1 C         140.9979  143.9547  163.5268 C.ar    1  UNL1        0.0511
      2 C         142.0477  143.4310  162.5922 C.ar    1  UNL1        0.0163
      3 C         142.1413  143.9657  161.1939 C.ar    1  UNL1        0.0253
      4 C         141.1850  145.0241  160.7301 C.ar    1  UNL1        0.1365
      5 C         140.1351  145.5479  161.6646 C.ar    1  UNL1        0.1541
      6 O         139.1788  146.6064  161.2009 O.3     1  UNL1       -0.5039
      7 C         140.0416  145.0132  163.0630 C.ar    1  UNL1        0.0527
      8 H         139.2372  146.9404  160.3274 H       1  UNL1        0.2923
      9 C         139.6296  143.5693  165.7014 C.3     1  UNL1        0.1122
     10 N         140.9043  143.4200  164.9251 N.pl3   1  UNL1       -0.3040
     11 C         142.0855  142.7361  165.5471 C.3     1  UNL1        0.1122
     12 N         141.2785  145.5588  159.3318 N.2     1  UNL1       -0.1435
     13 N         140.0712  145.5468  158.4418 N.2     1  UNL1       -0.1284
     14 C         140.1647  146.0815  157.0435 C.ar    1  UNL1        0.1838
     15 C         139.2368  147.1708  156.5934 C.ar    1  UNL1        0.0406
     16 C         139.3303  147.7055  155.1951 C.ar    1  UNL1        0.0048
     17 C         140.3518  147.1509  154.2468 C.ar    1  UNL1        0.0208
     18 C         141.2797  146.0617  154.6969 C.ar    1  UNL1        0.1006
     19 N         141.1861  145.5270  156.0953 N.ar    1  UNL1       -0.2236
@<TRIPOS>BOND
     1     9    10    1
     2    10    11    1
     3    10     1    1
     4     1     2   ar
     5     2     3   ar
     6     3     4   ar
     7     4    12    1
     8    12    13    2
     9    13    14    1
    10    14    15   ar
    11    15    16   ar
    12    16    17   ar
    13    17    18   ar
    14    18    19   ar
    15     4     5   ar
    16     5     6    1
    17     5     7   ar
    18     7     1   ar
    19    19    14   ar
    20     6     8    1
@<TRIPOS>MOLECULE
*****
 19 20 0 0 0
SMALL
GASTEIGER

@<TRIPOS>ATOM
      1 C         142.6599  133.0151  155.9191 C.ar    1  UNL1        0.0511
      2 C         143.1600  133.5720  157.2189 C.ar    1  UNL1        0.0163
      3 C         143.5232  135.0237  157.3226 C.ar    1  UNL1        0.0253
      4 C         143.3862  135.9184  156.1265 C.ar    1  UNL1        0.1365
      5 C         142.8861  135.3615  154.8267 C.ar    1  UNL1        0.1541
      6 O         142.7491  136.2562  153.6305 O.3     1  UNL1       -0.5039
      7 C         142.5229  133.9098  154.7230 C.ar    1  UNL1        0.0527
      8 H         142.9760  137.1630  153.6953 H       1  UNL1        0.2923
      9 C         141.2160  131.1263  154.8714 C.3     1  UNL1        0.1122
     10 N         142.2967  131.5634  155.8153 N.pl3   1  UNL1       -0.3040
     11 C         143.0142  130.5489  156.6554 C.3     1  UNL1        0.1122
     12 N         143.7494  137.3701  156.2303 N.2     1  UNL1       -0.1435
     13 N         144.8289  137.9374  155.3569 N.2     1  UNL1       -0.1284
     14 C         145.1920  139.3891  155.4606 C.ar    1  UNL1        0.1838
     15 C         145.5882  140.1528  154.2318 C.ar    1  UNL1        0.0406
     16 C         145.9513  141.6044  154.3356 C.ar    1  UNL1        0.0048
     17 C         145.9184  142.2924  155.6681 C.ar    1  UNL1        0.0208
     18 C         145.5223  141.5287  156.8969 C.ar    1  UNL1        0.1006
     19 N         145.1591  140.0771  156.7931 N.ar    1  UNL1       -0.2236
@<TRIPOS>BOND
     1     9    10    1
     2    10    11    1
     3    10     1    1
     4     1     2   ar
     5     2     3   ar
     6     3     4   ar
     7     4    12    1
     8    12    13    2
     9    13    14    1
    10    14    15   ar
    11    15    16   ar
    12    16    17   ar
    13    17    18   ar
    14    18    19   ar
    15     4     5   ar
    16     5     6    1
    17     5     7   ar
    18     7     1   ar
    19    19    14   ar
    20     6     8    1
@<TRIPOS>MOLECULE
*****
 19 20 0 0 0
SMALL
GASTEIGER

@<TRIPOS>ATOM
      1 C         144.3368  141.0890  161.4248 C.ar    1  UNL1        0.0511
      2 C         144.0517  141.6476  160.0622 C.ar    1  UNL1        0.0163
      3 C         143.5492  140.7474  158.9726 C.ar    1  UNL1        0.0253
      4 C         143.3318  139.2886  159.2456 C.ar    1  UNL1        0.1365
      5 C         143.6169  138.7300  160.6082 C.ar    1  UNL1        0.1541
      6 O         143.3996  137.2711  160.8813 O.3     1  UNL1       -0.5039
      7 C         144.1194  139.6302  161.6978 C.ar    1  UNL1        0.0527
      8 H         143.0857  136.7088  160.2007 H       1  UNL1        0.2923
      9 C         144.4912  143.4482  162.5019 C.3     1  UNL1        0.1122
     10 N         144.8392  141.9893  162.5143 N.pl3   1  UNL1       -0.3040
     11 C         145.6897  141.4305  163.6163 C.3     1  UNL1        0.1122
     12 N         142.8294  138.3884  158.1561 N.2     1  UNL1       -0.1435
     13 N         143.2744  136.9571  158.1009 N.2     1  UNL1       -0.1284
     14 C         142.7719  136.0569  157.0113 C.ar    1  UNL1        0.1838
     15 C         143.5423  134.8237  156.6424 C.ar    1  UNL1        0.0406
     16 C         143.0398  133.9235  155.5528 C.ar    1  UNL1        0.0048
     17 C         141.7670  134.2564  154.8322 C.ar    1  UNL1        0.0208
     18 C         140.9967  135.4895  155.2012 C.ar    1  UNL1        0.1006
     19 N         141.4992  136.3897  156.2908 N.ar    1  UNL1       -0.2236
@<TRIPOS>BOND
     1     9    10    1
     2    10    11    1
     3    10     1    1
     4     1     2   ar
     5     2     3   ar
     6     3     4   ar
     7     4    12    1
     8    12    13    2
     9    13    14    1
    10    14    15   ar
    11    15    16   ar
    12    16    17   ar
    13    17    18   ar
    14    18    19   ar
    15     4     5   ar
    16     5     6    1
    17     5     7   ar
    18     7     1   ar
    19    19    14   ar
    20     6     8    1
@<TRIPOS>MOLECULE
*****
 19 20 0 0 0
SMALL
GASTEIGER

@<TRIPOS>ATOM
      1 C         139.2251  142.8681  160.4283 C.ar    1  UNL1        0.0511
      2 C         140.3589  143.3101  161.3053 C.ar    1  UNL1        0.0163
      3 C         140.2744  143.1237  162.7913 C.ar    1  UNL1        0.0253
      4 C         139.0561  142.4954  163.4003 C.ar    1  UNL1        0.1365
      5 C         137.9223  142.0535  162.5233 C.ar    1  UNL1        0.1541
      6 O         136.7039  141.4251  163.1323 O.3     1  UNL1       -0.5039
      7 C         138.0068  142.2398  161.0373 C.ar    1  UNL1        0.0527
      8 H         136.6511  141.3087  164.0605 H       1  UNL1        0.2923
      9 C         140.0293  144.2420  158.3751 C.3     1  UNL1        0.1122
     10 N         139.3096  143.0545  158.9423 N.pl3   1  UNL1       -0.3040
     11 C         138.6744  142.0534  158.0236 C.3     1  UNL1        0.1122
     12 N         138.9716  142.3090  164.8862 N.2     1  UNL1       -0.1435
     13 N         140.1928  141.9158  165.6634 N.2     1  UNL1       -0.1284
     14 C         140.1083  141.7294  167.1494 C.ar    1  UNL1        0.1838
     15 C         139.6617  140.4143  167.7162 C.ar    1  UNL1        0.0406
     16 C         139.5772  140.2279  169.2021 C.ar    1  UNL1        0.0048
     17 C         139.9393  141.3567  170.1214 C.ar    1  UNL1        0.0208
     18 C         140.3859  142.6717  169.5546 C.ar    1  UNL1        0.1006
     19 N         140.4704  142.8581  168.0686 N.ar    1  UNL1       -0.2236
@<TRIPOS>BOND
     1     9    10    1
     2    10    11    1
     3    10     1    1
     4     1     2   ar
     5     2     3   ar
     6     3     4   ar
     7     4    12    1
     8    12    13    2
     9    13    14    1
    10    14    15   ar
    11    15    16   ar
    12    16    17   ar
    13    17    18   ar
    14    18    19   ar
    15     4     5   ar
    16     5     6    1
    17     5     7   ar
    18     7     1   ar
    19    19    14   ar
    20     6     8    1
@<TRIPOS>MOLECULE
*****
 19 20 0 0 0
SMALL
GASTEIGER

@<TRIPOS>ATOM
      1 C         138.8072  141.5904  161.5149 C.ar    1  UNL1        0.0511
      2 C         139.9140  142.5189  161.9186 C.ar    1  UNL1        0.0163
      3 C         140.2525  142.6965  163.3690 C.ar    1  UNL1        0.0253
      4 C         139.4842  141.9456  164.4159 C.ar    1  UNL1        0.1365
      5 C         138.3774  141.0172  164.0122 C.ar    1  UNL1        0.1541
      6 O         137.6091  140.2662  165.0591 O.3     1  UNL1       -0.5039
      7 C         138.0389  140.8396  162.5617 C.ar    1  UNL1        0.0527
      8 H         137.8205  140.3771  165.9651 H       1  UNL1        0.2923
      9 C         138.0515  140.0666  159.5510 C.3     1  UNL1        0.1122
     10 N         138.4687  141.4128  160.0644 N.pl3   1  UNL1       -0.3040
     11 C         138.5473  142.5815  159.1274 C.3     1  UNL1        0.1122
     12 N         139.8227  142.1232  165.8663 N.2     1  UNL1       -0.1435
     13 N         139.8034  140.9423  166.7910 N.2     1  UNL1       -0.1284
     14 C         140.1419  141.1199  168.2415 C.ar    1  UNL1        0.1838
     15 C         140.5572  142.4666  168.7553 C.ar    1  UNL1        0.0406
     16 C         140.8957  142.6442  170.2058 C.ar    1  UNL1        0.0048
     17 C         140.8189  141.4751  171.1424 C.ar    1  UNL1        0.0208
     18 C         140.4037  140.1284  170.6286 C.ar    1  UNL1        0.1006
     19 N         140.0652  139.9508  169.1781 N.ar    1  UNL1       -0.2236
@<TRIPOS>BOND
     1     9    10    1
     2    10    11    1
     3    10     1    1
     4     1     2   ar
     5     2     3   ar
     6     3     4   ar
     7     4    12    1
     8    12    13    2
     9    13    14    1
    10    14    15   ar
    11    15    16   ar
    12    16    17   ar
    13    17    18   ar
    14    18    19   ar
    15     4     5   ar
    16     5     6    1
    17     5     7   ar
    18     7     1   ar
    19    19    14   ar
    20     6     8    1
