@<TRIPOS>MOLECULE
*****
 35 38 0 0 0
SMALL
GASTEIGER

@<TRIPOS>ATOM
      1 N         141.1033  138.1516  164.3883 N.3     1  UNL1       -0.2684
      2 C         142.2736  138.4169  165.2882 C.3     1  UNL1        0.1035
      3 C         143.3522  139.3654  164.8559 C.3     1  UNL1        0.1470
      4 C         144.4309  140.3139  164.4237 C.3     1  UNL1        0.1035
      5 N         144.3392  140.9970  163.0914 N.3     1  UNL1       -0.2673
      6 C         143.1689  140.7316  162.1914 C.3     1  UNL1        0.1035
      7 C         142.0903  139.7832  162.6237 C.3     1  UNL1        0.1470
      8 C         141.0116  138.8347  163.0560 C.3     1  UNL1        0.1035
      9 O         143.2605  140.0485  163.5237 O.3     1  UNL1       -0.3530
     10 C         140.0246  137.2030  164.8205 C.3     1  UNL1        0.0761
     11 C         138.6116  137.6870  164.9591 C.3     1  UNL1        0.0646
     12 C         138.2556  138.6623  166.0418 C.3     1  UNL1        0.2068
     13 O         138.6388  140.1062  165.9061 O.3     1  UNL1       -0.4754
     14 C         142.0990  141.7473  168.2691 C.ar    1  UNL1        0.0686
     15 C         141.8414  142.2399  166.8759 C.ar    1  UNL1        0.0134
     16 C         140.6880  141.6929  166.0883 C.ar    1  UNL1        0.0376
     17 C         139.7922  140.6532  166.6938 C.ar    1  UNL1        0.1386
     18 C         140.0498  140.1606  168.0870 C.ar    1  UNL1        0.0376
     19 C         141.2032  140.7077  168.8747 C.ar    1  UNL1        0.0134
     20 N         144.4058  142.8414  169.8444 N.1     1  UNL1       -0.1908
     21 C         143.2524  142.2943  169.0568 C.1     1  UNL1        0.1004
     22 C         145.4179  141.9455  162.6591 C.3     1  UNL1        0.0913
     23 C         145.0777  143.1264  161.7988 C.3     1  UNL1        0.1087
     24 N         144.4011  144.3223  162.4003 N.3     1  UNL1       -0.1780
     25 H         144.6079  145.1145  161.7920 H       1  UNL1        0.1488
     26 S         142.9163  144.3158  162.6131 S.O2    1  UNL1        0.0603
     27 O         143.1293  144.2790  164.0974 O.2     1  UNL1       -0.1530
     28 O         142.7034  144.3527  161.1288 O.2     1  UNL1       -0.1530
     29 C         141.4315  144.3094  162.8259 C.ar    1  UNL1        0.1221
     30 C         140.5253  143.7443  161.7725 C.ar    1  UNL1        0.0222
     31 C         139.0405  143.7378  161.9853 C.ar    1  UNL1        0.0310
     32 C         138.4619  144.2963  163.2514 C.ar    1  UNL1        0.1402
     33 F         136.9770  144.2899  163.4642 F       1  UNL1       -0.2042
     34 C         139.3680  144.8614  164.3048 C.ar    1  UNL1        0.0310
     35 C         140.8528  144.8679  164.0920 C.ar    1  UNL1        0.0222
@<TRIPOS>BOND
     1    20    21    3
     2    21    14    1
     3    14    15   ar
     4    15    16   ar
     5    16    17   ar
     6    17    13    1
     7    13    12    1
     8    12    11    1
     9    11    10    1
    10    10     1    1
    11     1     2    1
    12     2     3    1
    13     3     4    1
    14     4     5    1
    15     5    22    1
    16    22    23    1
    17    23    24    1
    18    24    26    1
    19    26    27    2
    20    26    28    2
    21    26    29    1
    22    29    30   ar
    23    30    31   ar
    24    31    32   ar
    25    32    33    1
    26    32    34   ar
    27    34    35   ar
    28     5     6    1
    29     6     7    1
    30     7     8    1
    31     7     9    1
    32    17    18   ar
    33    18    19   ar
    34    19    14   ar
    35     8     1    1
    36     9     3    1
    37    35    29   ar
    38    24    25    1
@<TRIPOS>MOLECULE
*****
 35 38 0 0 0
SMALL
GASTEIGER

@<TRIPOS>ATOM
      1 N         138.6282  139.8864  164.8189 N.3     1  UNL1       -0.2684
      2 C         138.2209  140.1069  163.3922 C.3     1  UNL1        0.1035
      3 C         138.3125  141.4774  162.7894 C.3     1  UNL1        0.1470
      4 C         138.4042  142.8479  162.1865 C.3     1  UNL1        0.1035
      5 N         138.9032  143.9978  163.0103 N.3     1  UNL1       -0.2673
      6 C         139.3106  143.7772  164.4370 C.3     1  UNL1        0.1035
      7 C         139.2189  142.4067  165.0399 C.3     1  UNL1        0.1470
      8 C         139.1273  141.0363  165.6427 C.3     1  UNL1        0.1035
      9 O         138.8116  142.6273  163.6132 O.3     1  UNL1       -0.3530
     10 C         138.5366  138.5159  165.4218 C.3     1  UNL1        0.0761
     11 C         139.2075  137.3546  164.7501 C.3     1  UNL1        0.0646
     12 C         140.6530  137.4466  164.3601 C.3     1  UNL1        0.2068
     13 O         141.0948  136.9831  163.0036 O.3     1  UNL1       -0.4754
     14 C         143.1415  139.8495  160.2028 C.ar    1  UNL1        0.0686
     15 C         143.9439  138.8164  160.9368 C.ar    1  UNL1        0.0134
     16 C         143.2617  137.8609  161.8704 C.ar    1  UNL1        0.0376
     17 C         141.7770  137.9385  162.0700 C.ar    1  UNL1        0.1386
     18 C         140.9746  138.9717  161.3360 C.ar    1  UNL1        0.0376
     19 C         141.6569  139.9272  160.4024 C.ar    1  UNL1        0.0134
     20 N         144.5059  141.7605  158.3356 N.1     1  UNL1       -0.1908
     21 C         143.8237  140.8050  159.2692 C.1     1  UNL1        0.1004
     22 C         138.9949  145.3682  162.4075 C.3     1  UNL1        0.0913
     23 C         140.3357  146.0071  162.1975 C.3     1  UNL1        0.1087
     24 N         141.3687  145.3224  161.3525 N.3     1  UNL1       -0.1780
     25 H         142.0147  146.0448  161.0342 H       1  UNL1        0.1488
     26 S         142.2037  144.2208  161.9347 S.O2    1  UNL1        0.0603
     27 O         142.6233  145.1293  163.0521 O.2     1  UNL1       -0.1530
     28 O         141.7842  143.3123  160.8173 O.2     1  UNL1       -0.1530
     29 C         143.0388  143.1190  162.5169 C.ar    1  UNL1        0.1221
     30 C         144.5192  143.0929  162.2765 C.ar    1  UNL1        0.0222
     31 C         145.3543  141.9913  162.8586 C.ar    1  UNL1        0.0310
     32 C         144.7089  140.9157  163.6812 C.ar    1  UNL1        0.1402
     33 F         145.5440  139.8139  164.2634 F       1  UNL1       -0.2042
     34 C         143.2286  140.9417  163.9216 C.ar    1  UNL1        0.0310
     35 C         142.3935  142.0434  163.3394 C.ar    1  UNL1        0.0222
@<TRIPOS>BOND
     1    20    21    3
     2    21    14    1
     3    14    15   ar
     4    15    16   ar
     5    16    17   ar
     6    17    13    1
     7    13    12    1
     8    12    11    1
     9    11    10    1
    10    10     1    1
    11     1     2    1
    12     2     3    1
    13     3     4    1
    14     4     5    1
    15     5    22    1
    16    22    23    1
    17    23    24    1
    18    24    26    1
    19    26    27    2
    20    26    28    2
    21    26    29    1
    22    29    30   ar
    23    30    31   ar
    24    31    32   ar
    25    32    33    1
    26    32    34   ar
    27    34    35   ar
    28     5     6    1
    29     6     7    1
    30     7     8    1
    31     7     9    1
    32    17    18   ar
    33    18    19   ar
    34    19    14   ar
    35     8     1    1
    36     9     3    1
    37    35    29   ar
    38    24    25    1
@<TRIPOS>MOLECULE
*****
 35 38 0 0 0
SMALL
GASTEIGER

@<TRIPOS>ATOM
      1 N         138.9683  138.9254  162.1067 N.3     1  UNL1       -0.2684
      2 C         137.9705  140.0452  162.1201 C.3     1  UNL1        0.1035
      3 C         138.2123  141.2750  161.2960 C.3     1  UNL1        0.1470
      4 C         138.4541  142.5049  160.4719 C.3     1  UNL1        0.1035
      5 N         139.6938  142.6148  159.6345 N.3     1  UNL1       -0.2673
      6 C         140.6916  141.4948  159.6212 C.3     1  UNL1        0.1035
      7 C         140.4498  140.2650  160.4453 C.3     1  UNL1        0.1470
      8 C         140.2079  139.0353  161.2693 C.3     1  UNL1        0.1035
      9 O         139.4520  141.3849  160.4586 O.3     1  UNL1       -0.3530
     10 C         138.7265  137.6955  162.9308 C.3     1  UNL1        0.0761
     11 C         139.0541  137.6971  164.3946 C.3     1  UNL1        0.0646
     12 C         140.4747  137.8675  164.8450 C.3     1  UNL1        0.2068
     13 O         141.0105  139.2383  165.1345 O.3     1  UNL1       -0.4754
     14 C         140.7688  140.9141  169.3038 C.ar    1  UNL1        0.0686
     15 C         139.5378  140.3696  168.6418 C.ar    1  UNL1        0.0134
     16 C         139.6184  139.8110  167.2521 C.ar    1  UNL1        0.0376
     17 C         140.9299  139.7969  166.5243 C.ar    1  UNL1        0.1386
     18 C         142.1609  140.3414  167.1862 C.ar    1  UNL1        0.0376
     19 C         142.0803  140.9000  168.5761 C.ar    1  UNL1        0.0134
     20 N         140.6077  142.0313  172.0834 N.1     1  UNL1       -0.1908
     21 C         140.6882  141.4727  170.6936 C.1     1  UNL1        0.1004
     22 C         139.9356  143.8446  158.8105 C.3     1  UNL1        0.0913
     23 C         141.2294  144.5924  158.9410 C.3     1  UNL1        0.1087
     24 N         141.4535  145.5050  160.1101 N.3     1  UNL1       -0.1780
     25 H         140.8897  146.3389  159.9451 H       1  UNL1        0.1488
     26 S         141.1366  145.0360  161.4991 S.O2    1  UNL1        0.0603
     27 O         142.3048  144.0966  161.4485 O.2     1  UNL1       -0.1530
     28 O         139.9683  145.9754  161.5498 O.2     1  UNL1       -0.1530
     29 C         140.8195  144.5670  162.8883 C.ar    1  UNL1        0.1221
     30 C         141.7836  143.6796  163.6185 C.ar    1  UNL1        0.0222
     31 C         141.4666  143.2106  165.0076 C.ar    1  UNL1        0.0310
     32 C         140.1857  143.6289  165.6664 C.ar    1  UNL1        0.1402
     33 F         139.8687  143.1599  167.0555 F       1  UNL1       -0.2042
     34 C         139.2216  144.5163  164.9361 C.ar    1  UNL1        0.0310
     35 C         139.5386  144.9853  163.5471 C.ar    1  UNL1        0.0222
@<TRIPOS>BOND
     1    20    21    3
     2    21    14    1
     3    14    15   ar
     4    15    16   ar
     5    16    17   ar
     6    17    13    1
     7    13    12    1
     8    12    11    1
     9    11    10    1
    10    10     1    1
    11     1     2    1
    12     2     3    1
    13     3     4    1
    14     4     5    1
    15     5    22    1
    16    22    23    1
    17    23    24    1
    18    24    26    1
    19    26    27    2
    20    26    28    2
    21    26    29    1
    22    29    30   ar
    23    30    31   ar
    24    31    32   ar
    25    32    33    1
    26    32    34   ar
    27    34    35   ar
    28     5     6    1
    29     6     7    1
    30     7     8    1
    31     7     9    1
    32    17    18   ar
    33    18    19   ar
    34    19    14   ar
    35     8     1    1
    36     9     3    1
    37    35    29   ar
    38    24    25    1
@<TRIPOS>MOLECULE
*****
 35 38 0 0 0
SMALL
GASTEIGER

@<TRIPOS>ATOM
      1 N         143.8593  140.4845  163.1850 N.3     1  UNL1       -0.2684
      2 C         142.8224  140.2327  162.1308 C.3     1  UNL1        0.1035
      3 C         142.0842  141.3840  161.5148 C.3     1  UNL1        0.1470
      4 C         141.3459  142.5354  160.8988 C.3     1  UNL1        0.1035
      5 N         141.6447  143.9385  161.3370 N.3     1  UNL1       -0.2673
      6 C         142.6817  144.1903  162.3912 C.3     1  UNL1        0.1035
      7 C         143.4198  143.0389  163.0072 C.3     1  UNL1        0.1470
      8 C         144.1580  141.8876  163.6232 C.3     1  UNL1        0.1035
      9 O         142.3829  142.7871  161.9530 O.3     1  UNL1       -0.3530
     10 C         144.5975  139.3331  163.8010 C.3     1  UNL1        0.0761
     11 C         144.5232  139.1001  165.2809 C.3     1  UNL1        0.0646
     12 C         143.3545  138.3642  165.8665 C.3     1  UNL1        0.2068
     13 O         141.9784  138.9552  165.7840 O.3     1  UNL1       -0.4754
     14 C         140.8233  142.3549  168.4965 C.ar    1  UNL1        0.0686
     15 C         141.6867  142.6124  167.2972 C.ar    1  UNL1        0.0134
     16 C         142.0717  141.4792  166.3930 C.ar    1  UNL1        0.0376
     17 C         141.5933  140.0884  166.6882 C.ar    1  UNL1        0.1386
     18 C         140.7300  139.8309  167.8875 C.ar    1  UNL1        0.0376
     19 C         140.3450  140.9642  168.7917 C.ar    1  UNL1        0.0134
     20 N         140.0533  144.6213  170.3050 N.1     1  UNL1       -0.1908
     21 C         140.4383  143.4881  169.4007 C.1     1  UNL1        0.1004
     22 C         140.9065  145.0899  160.7210 C.3     1  UNL1        0.0913
     23 C         140.0217  145.9539  161.5699 C.3     1  UNL1        0.1087
     24 N         138.6772  145.4514  162.0053 N.3     1  UNL1       -0.1780
     25 H         138.0887  145.4255  161.1726 H       1  UNL1        0.1488
     26 S         138.5554  144.1091  162.6635 S.O2    1  UNL1        0.0603
     27 O         137.8758  143.5706  161.4395 O.2     1  UNL1       -0.1530
     28 O         139.2349  144.6476  163.8875 O.2     1  UNL1       -0.1530
     29 C         138.4335  142.7667  163.3218 C.ar    1  UNL1        0.1221
     30 C         138.6947  142.6259  164.7921 C.ar    1  UNL1        0.0222
     31 C         138.5729  141.2836  165.4504 C.ar    1  UNL1        0.0310
     32 C         138.1900  140.0821  164.6383 C.ar    1  UNL1        0.1402
     33 F         138.0682  138.7397  165.2966 F       1  UNL1       -0.2042
     34 C         137.9288  140.2228  163.1679 C.ar    1  UNL1        0.0310
     35 C         138.0506  141.5651  162.5097 C.ar    1  UNL1        0.0222
@<TRIPOS>BOND
     1    20    21    3
     2    21    14    1
     3    14    15   ar
     4    15    16   ar
     5    16    17   ar
     6    17    13    1
     7    13    12    1
     8    12    11    1
     9    11    10    1
    10    10     1    1
    11     1     2    1
    12     2     3    1
    13     3     4    1
    14     4     5    1
    15     5    22    1
    16    22    23    1
    17    23    24    1
    18    24    26    1
    19    26    27    2
    20    26    28    2
    21    26    29    1
    22    29    30   ar
    23    30    31   ar
    24    31    32   ar
    25    32    33    1
    26    32    34   ar
    27    34    35   ar
    28     5     6    1
    29     6     7    1
    30     7     8    1
    31     7     9    1
    32    17    18   ar
    33    18    19   ar
    34    19    14   ar
    35     8     1    1
    36     9     3    1
    37    35    29   ar
    38    24    25    1
@<TRIPOS>MOLECULE
*****
 35 38 0 0 0
SMALL
GASTEIGER

@<TRIPOS>ATOM
      1 N         138.9741  139.0520  165.1536 N.3     1  UNL1       -0.2684
      2 C         138.6488  140.0985  164.1294 C.3     1  UNL1        0.1035
      3 C         139.2034  139.9862  162.7403 C.3     1  UNL1        0.1470
      4 C         139.7580  139.8740  161.3511 C.3     1  UNL1        0.1035
      5 N         140.6379  138.7153  160.9861 N.3     1  UNL1       -0.2673
      6 C         140.9631  137.6687  162.0104 C.3     1  UNL1        0.1035
      7 C         140.4085  137.7810  163.3995 C.3     1  UNL1        0.1470
      8 C         139.8540  137.8932  164.7887 C.3     1  UNL1        0.1035
      9 O         140.0833  138.8275  162.3753 O.3     1  UNL1       -0.3530
     10 C         138.4195  139.1642  166.5429 C.3     1  UNL1        0.0761
     11 C         139.2120  139.8540  167.6134 C.3     1  UNL1        0.0646
     12 C         140.4965  140.5469  167.2668 C.3     1  UNL1        0.2068
     13 O         140.5939  142.0403  167.3674 O.3     1  UNL1       -0.4754
     14 C         139.8852  144.5913  163.7287 C.ar    1  UNL1        0.0686
     15 C         140.9933  143.5804  163.7317 C.ar    1  UNL1        0.0134
     16 C         141.2296  142.7301  164.9445 C.ar    1  UNL1        0.0376
     17 C         140.3576  142.8907  166.1545 C.ar    1  UNL1        0.1386
     18 C         139.2495  143.9016  166.1516 C.ar    1  UNL1        0.0376
     19 C         139.0132  144.7519  164.9386 C.ar    1  UNL1        0.0134
     20 N         139.4126  146.2920  161.3029 N.1     1  UNL1       -0.1908
     21 C         139.6489  145.4416  162.5158 C.1     1  UNL1        0.1004
     22 C         141.1925  138.6030  159.5970 C.3     1  UNL1        0.0913
     23 C         142.5919  138.1059  159.3860 C.3     1  UNL1        0.1087
     24 N         143.7367  139.0748  159.3640 N.3     1  UNL1       -0.1780
     25 H         143.5758  139.7030  158.5767 H       1  UNL1        0.1488
     26 S         144.0105  139.9394  160.5588 S.O2    1  UNL1        0.0603
     27 O         144.1993  138.7136  161.4025 O.2     1  UNL1       -0.1530
     28 O         143.8217  141.1651  159.7151 O.2     1  UNL1       -0.1530
     29 C         144.2843  140.8040  161.7536 C.ar    1  UNL1        0.1221
     30 C         144.3015  142.2971  161.6108 C.ar    1  UNL1        0.0222
     31 C         144.5753  143.1617  162.8055 C.ar    1  UNL1        0.0310
     32 C         144.8317  142.5333  164.1431 C.ar    1  UNL1        0.1402
     33 F         145.1055  143.3979  165.3379 F       1  UNL1       -0.2042
     34 C         144.8145  141.0402  164.2860 C.ar    1  UNL1        0.0310
     35 C         144.5407  140.1756  163.0912 C.ar    1  UNL1        0.0222
@<TRIPOS>BOND
     1    20    21    3
     2    21    14    1
     3    14    15   ar
     4    15    16   ar
     5    16    17   ar
     6    17    13    1
     7    13    12    1
     8    12    11    1
     9    11    10    1
    10    10     1    1
    11     1     2    1
    12     2     3    1
    13     3     4    1
    14     4     5    1
    15     5    22    1
    16    22    23    1
    17    23    24    1
    18    24    26    1
    19    26    27    2
    20    26    28    2
    21    26    29    1
    22    29    30   ar
    23    30    31   ar
    24    31    32   ar
    25    32    33    1
    26    32    34   ar
    27    34    35   ar
    28     5     6    1
    29     6     7    1
    30     7     8    1
    31     7     9    1
    32    17    18   ar
    33    18    19   ar
    34    19    14   ar
    35     8     1    1
    36     9     3    1
    37    35    29   ar
    38    24    25    1
@<TRIPOS>MOLECULE
*****
 35 38 0 0 0
SMALL
GASTEIGER

@<TRIPOS>ATOM
      1 N         142.8087  143.8232  162.2443 N.3     1  UNL1       -0.2684
      2 C         143.0304  142.8678  161.1094 C.3     1  UNL1        0.1035
      3 C         141.8568  142.2446  160.4135 C.3     1  UNL1        0.1470
      4 C         140.6831  141.6214  159.7176 C.3     1  UNL1        0.1035
      5 N         139.2878  141.9536  160.1566 N.3     1  UNL1       -0.2673
      6 C         139.0662  142.9091  161.2916 C.3     1  UNL1        0.1035
      7 C         140.2398  143.5323  161.9874 C.3     1  UNL1        0.1470
      8 C         141.4134  144.1554  162.6833 C.3     1  UNL1        0.1035
      9 O         140.4615  142.5769  160.8526 O.3     1  UNL1       -0.3530
     10 C         143.9823  144.4465  162.9402 C.3     1  UNL1        0.0761
     11 C         144.0734  144.4087  164.4369 C.3     1  UNL1        0.0646
     12 C         144.2639  143.0995  165.1440 C.3     1  UNL1        0.2068
     13 O         143.6863  142.8956  166.5132 O.3     1  UNL1       -0.4754
     14 C         140.0635  140.2830  167.0604 C.ar    1  UNL1        0.0686
     15 C         139.9800  141.5109  166.2029 C.ar    1  UNL1        0.0134
     16 C         141.1876  142.3817  166.0204 C.ar    1  UNL1        0.0376
     17 C         142.4787  142.0248  166.6956 C.ar    1  UNL1        0.1386
     18 C         142.5621  140.7969  167.5532 C.ar    1  UNL1        0.0376
     19 C         141.3545  139.9260  167.7356 C.ar    1  UNL1        0.0134
     20 N         137.6482  138.5412  167.4253 N.1     1  UNL1       -0.1908
     21 C         138.8559  139.4121  167.2428 C.1     1  UNL1        0.1004
     22 C         138.1142  141.3305  159.4608 C.3     1  UNL1        0.0913
     23 C         137.6498  139.9596  159.8549 C.3     1  UNL1        0.1087
     24 N         137.4247  139.6309  161.3010 N.3     1  UNL1       -0.1780
     25 H         136.7769  138.8435  161.3266 H       1  UNL1        0.1488
     26 S         138.5864  139.2647  162.1764 S.O2    1  UNL1        0.0603
     27 O         139.0998  138.3435  161.1098 O.2     1  UNL1       -0.1530
     28 O         138.0730  140.1859  163.2430 O.2     1  UNL1       -0.1530
     29 C         139.7480  138.8985  163.0520 C.ar    1  UNL1        0.1221
     30 C         139.6836  137.6683  163.9078 C.ar    1  UNL1        0.0222
     31 C         140.8451  137.3020  164.7833 C.ar    1  UNL1        0.0310
     32 C         142.0712  138.1660  164.8030 C.ar    1  UNL1        0.1402
     33 F         143.2328  137.7997  165.6786 F       1  UNL1       -0.2042
     34 C         142.1356  139.3962  163.9472 C.ar    1  UNL1        0.0310
     35 C         140.9740  139.7624  163.0717 C.ar    1  UNL1        0.0222
@<TRIPOS>BOND
     1    20    21    3
     2    21    14    1
     3    14    15   ar
     4    15    16   ar
     5    16    17   ar
     6    17    13    1
     7    13    12    1
     8    12    11    1
     9    11    10    1
    10    10     1    1
    11     1     2    1
    12     2     3    1
    13     3     4    1
    14     4     5    1
    15     5    22    1
    16    22    23    1
    17    23    24    1
    18    24    26    1
    19    26    27    2
    20    26    28    2
    21    26    29    1
    22    29    30   ar
    23    30    31   ar
    24    31    32   ar
    25    32    33    1
    26    32    34   ar
    27    34    35   ar
    28     5     6    1
    29     6     7    1
    30     7     8    1
    31     7     9    1
    32    17    18   ar
    33    18    19   ar
    34    19    14   ar
    35     8     1    1
    36     9     3    1
    37    35    29   ar
    38    24    25    1
@<TRIPOS>MOLECULE
*****
 35 38 0 0 0
SMALL
GASTEIGER

@<TRIPOS>ATOM
      1 N         138.8628  144.0615  161.8100 N.3     1  UNL1       -0.2684
      2 C         139.4685  143.1520  160.7825 C.3     1  UNL1        0.1035
      3 C         139.3501  141.6644  160.9346 C.3     1  UNL1        0.1470
      4 C         139.2317  140.1768  161.0867 C.3     1  UNL1        0.1035
      5 N         138.5075  139.5988  162.2663 N.3     1  UNL1       -0.2673
      6 C         137.9018  140.5084  163.2938 C.3     1  UNL1        0.1035
      7 C         138.0202  141.9959  163.1417 C.3     1  UNL1        0.1470
      8 C         138.1387  143.4834  162.9897 C.3     1  UNL1        0.1035
      9 O         138.6259  141.0864  162.1142 O.3     1  UNL1       -0.3530
     10 C         138.9812  145.5491  161.6580 C.3     1  UNL1        0.0761
     11 C         140.2513  146.2443  162.0497 C.3     1  UNL1        0.0646
     12 C         140.9921  145.8151  163.2814 C.3     1  UNL1        0.2068
     13 O         142.1313  144.8455  163.1718 O.3     1  UNL1       -0.4754
     14 C         142.5972  141.5676  166.2195 C.ar    1  UNL1        0.0686
     15 C         143.6658  142.6094  166.0693 C.ar    1  UNL1        0.0134
     16 C         143.5105  143.7021  165.0534 C.ar    1  UNL1        0.0376
     17 C         142.2866  143.7529  164.1877 C.ar    1  UNL1        0.1386
     18 C         141.2179  142.7110  164.3379 C.ar    1  UNL1        0.0376
     19 C         141.3733  141.6184  165.3538 C.ar    1  UNL1        0.0134
     20 N         142.9077  139.3823  168.2512 N.1     1  UNL1       -0.1908
     21 C         142.7524  140.4750  167.2353 C.1     1  UNL1        0.1004
     22 C         138.3891  138.1112  162.4184 C.3     1  UNL1        0.0913
     23 C         139.1747  137.4010  163.4807 C.3     1  UNL1        0.1087
     24 N         140.5749  136.9432  163.1982 N.3     1  UNL1       -0.1780
     25 H         140.5627  136.5116  162.2741 H       1  UNL1        0.1488
     26 S         141.7021  137.9328  163.1991 S.O2    1  UNL1        0.0603
     27 O         141.8137  137.8071  161.7086 O.2     1  UNL1       -0.1530
     28 O         141.5905  138.0586  164.6896 O.2     1  UNL1       -0.1530
     29 C         142.8293  138.9225  163.2000 C.ar    1  UNL1        0.1221
     30 C         143.9553  138.7758  164.1801 C.ar    1  UNL1        0.0222
     31 C         145.0825  139.7654  164.1810 C.ar    1  UNL1        0.0310
     32 C         145.0837  140.9018  163.2020 C.ar    1  UNL1        0.1402
     33 F         146.2109  141.8915  163.2029 F       1  UNL1       -0.2042
     34 C         143.9576  141.0485  162.2219 C.ar    1  UNL1        0.0310
     35 C         142.8304  140.0589  162.2209 C.ar    1  UNL1        0.0222
@<TRIPOS>BOND
     1    20    21    3
     2    21    14    1
     3    14    15   ar
     4    15    16   ar
     5    16    17   ar
     6    17    13    1
     7    13    12    1
     8    12    11    1
     9    11    10    1
    10    10     1    1
    11     1     2    1
    12     2     3    1
    13     3     4    1
    14     4     5    1
    15     5    22    1
    16    22    23    1
    17    23    24    1
    18    24    26    1
    19    26    27    2
    20    26    28    2
    21    26    29    1
    22    29    30   ar
    23    30    31   ar
    24    31    32   ar
    25    32    33    1
    26    32    34   ar
    27    34    35   ar
    28     5     6    1
    29     6     7    1
    30     7     8    1
    31     7     9    1
    32    17    18   ar
    33    18    19   ar
    34    19    14   ar
    35     8     1    1
    36     9     3    1
    37    35    29   ar
    38    24    25    1
@<TRIPOS>MOLECULE
*****
 35 38 0 0 0
SMALL
GASTEIGER

@<TRIPOS>ATOM
      1 N         141.9788  143.2059  160.9869 N.3     1  UNL1       -0.2684
      2 C         143.3116  143.2882  161.6701 C.3     1  UNL1        0.1035
      3 C         143.7476  142.1932  162.5979 C.3     1  UNL1        0.1470
      4 C         144.1837  141.0982  163.5258 C.3     1  UNL1        0.1035
      5 N         143.2869  139.9209  163.7704 N.3     1  UNL1       -0.2673
      6 C         141.9540  139.8387  163.0872 C.3     1  UNL1        0.1035
      7 C         141.5180  140.9337  162.1593 C.3     1  UNL1        0.1470
      8 C         141.0820  142.0286  161.2315 C.3     1  UNL1        0.1035
      9 O         142.8508  141.0159  162.8426 O.3     1  UNL1       -0.3530
     10 C         141.5427  144.3009  160.0591 C.3     1  UNL1        0.0761
     11 C         140.1848  144.9189  160.2141 C.3     1  UNL1        0.0646
     12 C         139.9366  145.9210  161.3023 C.3     1  UNL1        0.2068
     13 O         138.8474  145.6839  162.3061 O.3     1  UNL1       -0.4754
     14 C         138.7143  141.8215  164.6113 C.ar    1  UNL1        0.0686
     15 C         139.7831  142.8327  164.9032 C.ar    1  UNL1        0.0134
     16 C         139.8275  144.1201  164.1348 C.ar    1  UNL1        0.0376
     17 C         138.8030  144.3964  163.0745 C.ar    1  UNL1        0.1386
     18 C         137.7343  143.3852  162.7825 C.ar    1  UNL1        0.0376
     19 C         137.6899  142.0977  163.5510 C.ar    1  UNL1        0.0134
     20 N         138.6255  139.2465  166.1481 N.1     1  UNL1       -0.1908
     21 C         138.6699  140.5340  165.3797 C.1     1  UNL1        0.1004
     22 C         143.7229  138.8259  164.6982 C.3     1  UNL1        0.0913
     23 C         142.8645  138.4489  165.8692 C.3     1  UNL1        0.1087
     24 N         143.2804  138.8325  167.2584 N.3     1  UNL1       -0.1780
     25 H         144.2048  139.2569  167.1824 H       1  UNL1        0.1488
     26 S         142.4350  139.7768  168.0605 S.O2    1  UNL1        0.0603
     27 O         141.9215  140.3935  166.7932 O.2     1  UNL1       -0.1530
     28 O         142.9485  139.1602  169.3277 O.2     1  UNL1       -0.1530
     29 C         141.5896  140.7212  168.8627 C.ar    1  UNL1        0.1221
     30 C         142.1174  142.0780  169.2242 C.ar    1  UNL1        0.0222
     31 C         141.2721  143.0223  170.0263 C.ar    1  UNL1        0.0310
     32 C         139.8989  142.6100  170.4670 C.ar    1  UNL1        0.1402
     33 F         139.0535  143.5544  171.2692 F       1  UNL1       -0.2042
     34 C         139.3710  141.2533  170.1055 C.ar    1  UNL1        0.0310
     35 C         140.2164  140.3089  169.3034 C.ar    1  UNL1        0.0222
@<TRIPOS>BOND
     1    20    21    3
     2    21    14    1
     3    14    15   ar
     4    15    16   ar
     5    16    17   ar
     6    17    13    1
     7    13    12    1
     8    12    11    1
     9    11    10    1
    10    10     1    1
    11     1     2    1
    12     2     3    1
    13     3     4    1
    14     4     5    1
    15     5    22    1
    16    22    23    1
    17    23    24    1
    18    24    26    1
    19    26    27    2
    20    26    28    2
    21    26    29    1
    22    29    30   ar
    23    30    31   ar
    24    31    32   ar
    25    32    33    1
    26    32    34   ar
    27    34    35   ar
    28     5     6    1
    29     6     7    1
    30     7     8    1
    31     7     9    1
    32    17    18   ar
    33    18    19   ar
    34    19    14   ar
    35     8     1    1
    36     9     3    1
    37    35    29   ar
    38    24    25    1
@<TRIPOS>MOLECULE
*****
 35 38 0 0 0
SMALL
GASTEIGER

@<TRIPOS>ATOM
      1 N         139.5463  137.5976  164.2981 N.3     1  UNL1       -0.2684
      2 C         141.0446  137.5272  164.3056 C.3     1  UNL1        0.1035
      3 C         141.8130  137.7664  163.0398 C.3     1  UNL1        0.1470
      4 C         142.5815  138.0056  161.7740 C.3     1  UNL1        0.1035
      5 N         141.8516  138.3152  160.5006 N.3     1  UNL1       -0.2673
      6 C         140.3532  138.3856  160.4932 C.3     1  UNL1        0.1035
      7 C         139.5848  138.1464  161.7590 C.3     1  UNL1        0.1470
      8 C         138.8164  137.9072  163.0248 C.3     1  UNL1        0.1035
      9 O         141.0831  138.0760  161.7665 O.3     1  UNL1       -0.3530
     10 C         138.7778  137.3584  165.5640 C.3     1  UNL1        0.0761
     11 C         138.0496  138.4912  166.2246 C.3     1  UNL1        0.0646
     12 C         138.8193  139.5648  166.9352 C.3     1  UNL1        0.2068
     13 O         140.0343  140.1663  166.2934 O.3     1  UNL1       -0.4754
     14 C         139.6135  143.7294  163.5774 C.ar    1  UNL1        0.0686
     15 C         138.7288  142.5330  163.3875 C.ar    1  UNL1        0.0134
     16 C         138.8691  141.3453  164.2928 C.ar    1  UNL1        0.0376
     17 C         139.8941  141.3540  165.3881 C.ar    1  UNL1        0.1386
     18 C         140.7787  142.5504  165.5779 C.ar    1  UNL1        0.0376
     19 C         140.6384  143.7381  164.6726 C.ar    1  UNL1        0.0134
     20 N         139.3329  146.1049  161.7667 N.1     1  UNL1       -0.1908
     21 C         139.4732  144.9172  162.6721 C.1     1  UNL1        0.1004
     22 C         142.6200  138.5543  159.2348 C.3     1  UNL1        0.0913
     23 C         143.1516  139.9229  158.9274 C.3     1  UNL1        0.1087
     24 N         142.4740  141.1354  159.4936 N.3     1  UNL1       -0.1780
     25 H         141.4945  140.8873  159.6328 H       1  UNL1        0.1488
     26 S         142.9571  141.7312  160.7826 S.O2    1  UNL1        0.0603
     27 O         141.5770  141.6078  161.3569 O.2     1  UNL1       -0.1530
     28 O         144.3373  141.8546  160.2083 O.2     1  UNL1       -0.1530
     29 C         143.4403  142.3271  162.0717 C.ar    1  UNL1        0.1221
     30 C         143.8605  141.4328  163.2003 C.ar    1  UNL1        0.0222
     31 C         144.3436  142.0285  164.4893 C.ar    1  UNL1        0.0310
     32 C         144.4066  143.5186  164.6497 C.ar    1  UNL1        0.1402
     33 F         144.8898  144.1144  165.9387 F       1  UNL1       -0.2042
     34 C         143.9864  144.4129  163.5211 C.ar    1  UNL1        0.0310
     35 C         143.5033  143.8171  162.2321 C.ar    1  UNL1        0.0222
@<TRIPOS>BOND
     1    20    21    3
     2    21    14    1
     3    14    15   ar
     4    15    16   ar
     5    16    17   ar
     6    17    13    1
     7    13    12    1
     8    12    11    1
     9    11    10    1
    10    10     1    1
    11     1     2    1
    12     2     3    1
    13     3     4    1
    14     4     5    1
    15     5    22    1
    16    22    23    1
    17    23    24    1
    18    24    26    1
    19    26    27    2
    20    26    28    2
    21    26    29    1
    22    29    30   ar
    23    30    31   ar
    24    31    32   ar
    25    32    33    1
    26    32    34   ar
    27    34    35   ar
    28     5     6    1
    29     6     7    1
    30     7     8    1
    31     7     9    1
    32    17    18   ar
    33    18    19   ar
    34    19    14   ar
    35     8     1    1
    36     9     3    1
    37    35    29   ar
    38    24    25    1
