@<TRIPOS>MOLECULE
*****
 42 47 0 0 0
SMALL
GASTEIGER

@<TRIPOS>ATOM
      1 N         141.1528  144.0648  159.3412 N.2     1  UNL1       -0.2011
      2 C         142.5226  143.4753  159.1798 C.ar    1  UNL1        0.1982
      3 S         143.1805  143.1165  157.8804 S.2     1  UNL1       -0.0233
      4 C         144.5395  142.5606  158.1869 C.ar    1  UNL1        0.1870
      5 N         144.7215  142.5759  159.6758 N.ar    1  UNL1       -0.1520
      6 N         143.4750  143.1412  160.2894 N.ar    1  UNL1       -0.2060
      7 C         139.5276  143.2399  157.4896 C.ar    1  UNL1        0.1042
      8 C         138.6850  143.5215  156.2810 C.ar    1  UNL1        0.0141
      9 C         138.6251  144.9094  155.7153 C.ar    1  UNL1        0.0199
     10 C         139.4076  146.0158  156.3582 C.ar    1  UNL1        0.0830
     11 N         140.2502  145.7343  157.5668 N.ar    1  UNL1       -0.2259
     12 C         140.3102  144.3463  158.1325 C.ar    1  UNL1        0.1740
     13 C         137.9024  142.4151  155.6380 C.ar    1  UNL1        0.0008
     14 C         136.5313  142.0749  156.1424 C.ar    1  UNL1        0.0000
     15 C         135.7487  140.9685  155.4993 C.ar    1  UNL1        0.0000
     16 C         136.3372  140.2023  154.3520 C.ar    1  UNL1        0.0000
     17 C         137.7083  140.5424  153.8476 C.ar    1  UNL1        0.0000
     18 C         138.4909  141.6488  154.4906 C.ar    1  UNL1        0.0000
     19 C         139.3477  147.4038  155.7925 C.ar    1  UNL1        0.0177
     20 C         138.6293  148.4879  156.5399 C.ar    1  UNL1        0.0015
     21 C         138.5693  149.8758  155.9742 C.ar    1  UNL1        0.0000
     22 C         139.2278  150.1797  154.6612 C.ar    1  UNL1        0.0000
     23 C         139.9462  149.0956  153.9138 C.ar    1  UNL1        0.0000
     24 C         140.0061  147.7076  154.4795 C.ar    1  UNL1        0.0015
     25 N         139.6475  140.4640  158.6209 N.1     1  UNL1       -0.1907
     26 C         139.5875  141.8520  158.0553 C.1     1  UNL1        0.1035
     27 C         143.2248  143.3379  161.7552 C.ar    1  UNL1        0.0849
     28 C         144.0117  144.3608  162.5197 C.ar    1  UNL1        0.0192
     29 C         143.7615  144.5575  163.9855 C.ar    1  UNL1        0.0015
     30 C         142.7246  143.7313  164.6870 C.ar    1  UNL1        0.0001
     31 C         141.9377  142.7083  163.9225 C.ar    1  UNL1        0.0015
     32 C         142.1878  142.5116  162.4567 C.ar    1  UNL1        0.0192
     33 C         145.5408  142.0747  157.1812 C.2     1  UNL1        0.2753
     34 O         145.5567  140.6306  156.7761 O.2     1  UNL1       -0.2675
     35 N         146.5261  143.0330  156.5806 N.am    1  UNL1       -0.2787
     36 H         146.5157  143.9809  156.8465 H       1  UNL1        0.1552
     37 C         147.5274  142.5472  155.5749 C.ar    1  UNL1        0.0506
     38 C         147.1834  142.5450  154.1149 C.ar    1  UNL1        0.0147
     39 C         148.1846  142.0591  153.1092 C.ar    1  UNL1        0.0013
     40 C         149.5298  141.5754  153.5635 C.ar    1  UNL1        0.0001
     41 C         149.8738  141.5777  155.0235 C.ar    1  UNL1        0.0013
     42 C         148.8726  142.0635  156.0292 C.ar    1  UNL1        0.0147
@<TRIPOS>BOND
     1    25    26    3
     2    26     7    1
     3     7     8   ar
     4     8    13    1
     5    13    14   ar
     6    14    15   ar
     7    15    16   ar
     8    16    17   ar
     9    17    18   ar
    10     8     9   ar
    11     9    10   ar
    12    10    19    1
    13    19    20   ar
    14    20    21   ar
    15    21    22   ar
    16    22    23   ar
    17    23    24   ar
    18    10    11   ar
    19    11    12   ar
    20    12     1    1
    21     1     2    2
    22     2     3   ar
    23     3     4   ar
    24     4    33    1
    25    33    34    2
    26    33    35   am
    27    35    37    1
    28    37    38   ar
    29    38    39   ar
    30    39    40   ar
    31    40    41   ar
    32    41    42   ar
    33     4     5   ar
    34     5     6   ar
    35     6    27    1
    36    27    28   ar
    37    28    29   ar
    38    29    30   ar
    39    30    31   ar
    40    31    32   ar
    41    12     7   ar
    42     6     2   ar
    43    32    27   ar
    44    18    13   ar
    45    24    19   ar
    46    42    37   ar
    47    35    36    1
@<TRIPOS>MOLECULE
*****
 42 47 0 0 0
SMALL
GASTEIGER

@<TRIPOS>ATOM
      1 N         142.1432  143.7172  155.9214 N.2     1  UNL1       -0.2011
      2 C         142.5573  143.5347  157.3515 C.ar    1  UNL1        0.1982
      3 S         141.7582  143.9296  158.5580 S.2     1  UNL1       -0.0233
      4 C         142.5502  143.5642  159.7784 C.ar    1  UNL1        0.1870
      5 N         143.8388  142.9436  159.3261 N.ar    1  UNL1       -0.1520
      6 N         143.8431  142.9254  157.8262 N.ar    1  UNL1       -0.2060
      7 C         139.6510  143.4834  155.2253 C.ar    1  UNL1        0.1042
      8 C         138.3282  144.1122  154.9019 C.ar    1  UNL1        0.0141
      9 C         138.1745  145.6034  154.9513 C.ar    1  UNL1        0.0199
     10 C         139.3437  146.4660  155.3240 C.ar    1  UNL1        0.0830
     11 N         140.6665  145.8372  155.6474 N.ar    1  UNL1       -0.2259
     12 C         140.8202  144.3460  155.5980 C.ar    1  UNL1        0.1740
     13 C         137.1589  143.2496  154.5292 C.ar    1  UNL1        0.0008
     14 C         136.7320  143.1437  153.0951 C.ar    1  UNL1        0.0000
     15 C         135.5627  142.2812  152.7224 C.ar    1  UNL1        0.0000
     16 C         134.8204  141.5245  153.7837 C.ar    1  UNL1        0.0000
     17 C         135.2474  141.6304  155.2178 C.ar    1  UNL1        0.0000
     18 C         136.4166  142.4930  155.5905 C.ar    1  UNL1        0.0000
     19 C         139.1900  147.9573  155.3733 C.ar    1  UNL1        0.0177
     20 C         138.5490  148.6062  156.5641 C.ar    1  UNL1        0.0015
     21 C         138.3953  150.0975  156.6135 C.ar    1  UNL1        0.0000
     22 C         138.8826  150.9399  155.4720 C.ar    1  UNL1        0.0000
     23 C         139.5236  150.2909  154.2813 C.ar    1  UNL1        0.0000
     24 C         139.6772  148.7997  154.2319 C.ar    1  UNL1        0.0015
     25 N         139.9584  140.5008  155.1266 N.1     1  UNL1       -0.1907
     26 C         139.8047  141.9921  155.1760 C.1     1  UNL1        0.1035
     27 C         144.9406  142.3915  156.9542 C.ar    1  UNL1        0.0849
     28 C         144.6206  141.4234  155.8540 C.ar    1  UNL1        0.0192
     29 C         145.7181  140.8896  154.9820 C.ar    1  UNL1        0.0015
     30 C         147.1356  141.3238  155.2100 C.ar    1  UNL1        0.0001
     31 C         147.4557  142.2919  156.3101 C.ar    1  UNL1        0.0015
     32 C         146.3582  142.8258  157.1822 C.ar    1  UNL1        0.0192
     33 C         142.1278  143.7814  161.2012 C.2     1  UNL1        0.2753
     34 O         143.0132  144.5490  162.1376 O.2     1  UNL1       -0.2675
     35 N         140.8200  143.2309  161.6877 N.am    1  UNL1       -0.2787
     36 H         140.2389  142.7271  161.0732 H       1  UNL1        0.1552
     37 C         140.3977  143.4481  163.1105 C.ar    1  UNL1        0.0506
     38 C         139.4712  144.5766  163.4540 C.ar    1  UNL1        0.0147
     39 C         139.0488  144.7938  164.8768 C.ar    1  UNL1        0.0013
     40 C         139.5530  143.8823  165.9562 C.ar    1  UNL1        0.0001
     41 C         140.4795  142.7537  165.6127 C.ar    1  UNL1        0.0013
     42 C         140.9018  142.5366  164.1899 C.ar    1  UNL1        0.0147
@<TRIPOS>BOND
     1    25    26    3
     2    26     7    1
     3     7     8   ar
     4     8    13    1
     5    13    14   ar
     6    14    15   ar
     7    15    16   ar
     8    16    17   ar
     9    17    18   ar
    10     8     9   ar
    11     9    10   ar
    12    10    19    1
    13    19    20   ar
    14    20    21   ar
    15    21    22   ar
    16    22    23   ar
    17    23    24   ar
    18    10    11   ar
    19    11    12   ar
    20    12     1    1
    21     1     2    2
    22     2     3   ar
    23     3     4   ar
    24     4    33    1
    25    33    34    2
    26    33    35   am
    27    35    37    1
    28    37    38   ar
    29    38    39   ar
    30    39    40   ar
    31    40    41   ar
    32    41    42   ar
    33     4     5   ar
    34     5     6   ar
    35     6    27    1
    36    27    28   ar
    37    28    29   ar
    38    29    30   ar
    39    30    31   ar
    40    31    32   ar
    41    12     7   ar
    42     6     2   ar
    43    32    27   ar
    44    18    13   ar
    45    24    19   ar
    46    42    37   ar
    47    35    36    1
@<TRIPOS>MOLECULE
*****
 42 47 0 0 0
SMALL
GASTEIGER

@<TRIPOS>ATOM
      1 N         139.8894  139.5605  155.2817 N.2     1  UNL1       -0.2011
      2 C         139.2535  139.8140  156.6163 C.ar    1  UNL1        0.1982
      3 S         139.8724  139.5377  157.9545 S.2     1  UNL1       -0.0233
      4 C         138.8885  139.9412  159.0124 C.ar    1  UNL1        0.1870
      5 N         137.6615  140.4667  158.3280 N.ar    1  UNL1       -0.1520
      6 N         137.8871  140.3881  156.8472 N.ar    1  UNL1       -0.2060
      7 C         142.4605  139.8842  155.0954 C.ar    1  UNL1        0.1042
      8 C         143.8410  139.3024  155.0207 C.ar    1  UNL1        0.0141
      9 C         144.0309  137.8149  155.0575 C.ar    1  UNL1        0.0199
     10 C         142.8404  136.9093  155.1690 C.ar    1  UNL1        0.0830
     11 N         141.4599  137.4912  155.2437 N.ar    1  UNL1       -0.2259
     12 C         141.2700  138.9787  155.2069 C.ar    1  UNL1        0.1740
     13 C         145.0316  140.2079  154.9092 C.ar    1  UNL1        0.0008
     14 C         145.6279  140.5007  153.5643 C.ar    1  UNL1        0.0000
     15 C         146.8185  141.4063  153.4528 C.ar    1  UNL1        0.0000
     16 C         147.4128  142.0191  154.6862 C.ar    1  UNL1        0.0000
     17 C         146.8165  141.7263  156.0311 C.ar    1  UNL1        0.0000
     18 C         145.6259  140.8207  156.1426 C.ar    1  UNL1        0.0000
     19 C         143.0303  135.4218  155.2058 C.ar    1  UNL1        0.0177
     20 C         142.5196  134.5724  154.0800 C.ar    1  UNL1        0.0015
     21 C         142.7095  133.0850  154.1168 C.ar    1  UNL1        0.0000
     22 C         143.4102  132.4469  155.2795 C.ar    1  UNL1        0.0000
     23 C         143.9210  133.2963  156.4053 C.ar    1  UNL1        0.0000
     24 C         143.7310  134.7838  156.3685 C.ar    1  UNL1        0.0015
     25 N         142.0806  142.8592  155.0218 N.1     1  UNL1       -0.1907
     26 C         142.2706  141.3717  155.0586 C.1     1  UNL1        0.1035
     27 C         136.9167  140.8096  155.7839 C.ar    1  UNL1        0.0849
     28 C         135.7979  139.8940  155.3840 C.ar    1  UNL1        0.0192
     29 C         134.8275  140.3155  154.3208 C.ar    1  UNL1        0.0015
     30 C         134.9757  141.6525  153.6573 C.ar    1  UNL1        0.0001
     31 C         136.0946  142.5683  154.0572 C.ar    1  UNL1        0.0015
     32 C         137.0650  142.1467  155.1205 C.ar    1  UNL1        0.0192
     33 C         139.0953  139.8373  160.4945 C.2     1  UNL1        0.2753
     34 O         140.3073  140.4536  161.1277 O.2     1  UNL1       -0.2675
     35 N         138.0899  139.1170  161.3433 N.am    1  UNL1       -0.2787
     36 H         137.2944  138.7125  160.9278 H       1  UNL1        0.1552
     37 C         138.2967  139.0132  162.8254 C.ar    1  UNL1        0.0506
     38 C         138.8365  137.7464  163.4204 C.ar    1  UNL1        0.0147
     39 C         139.0432  137.6426  164.9024 C.ar    1  UNL1        0.0013
     40 C         138.7102  138.8054  165.7894 C.ar    1  UNL1        0.0001
     41 C         138.1704  140.0722  165.1944 C.ar    1  UNL1        0.0013
     42 C         137.9637  140.1761  163.7124 C.ar    1  UNL1        0.0147
@<TRIPOS>BOND
     1    25    26    3
     2    26     7    1
     3     7     8   ar
     4     8    13    1
     5    13    14   ar
     6    14    15   ar
     7    15    16   ar
     8    16    17   ar
     9    17    18   ar
    10     8     9   ar
    11     9    10   ar
    12    10    19    1
    13    19    20   ar
    14    20    21   ar
    15    21    22   ar
    16    22    23   ar
    17    23    24   ar
    18    10    11   ar
    19    11    12   ar
    20    12     1    1
    21     1     2    2
    22     2     3   ar
    23     3     4   ar
    24     4    33    1
    25    33    34    2
    26    33    35   am
    27    35    37    1
    28    37    38   ar
    29    38    39   ar
    30    39    40   ar
    31    40    41   ar
    32    41    42   ar
    33     4     5   ar
    34     5     6   ar
    35     6    27    1
    36    27    28   ar
    37    28    29   ar
    38    29    30   ar
    39    30    31   ar
    40    31    32   ar
    41    12     7   ar
    42     6     2   ar
    43    32    27   ar
    44    18    13   ar
    45    24    19   ar
    46    42    37   ar
    47    35    36    1
@<TRIPOS>MOLECULE
*****
 42 47 0 0 0
SMALL
GASTEIGER

@<TRIPOS>ATOM
      1 N         142.4098  140.5783  156.7857 N.2     1  UNL1       -0.2011
      2 C         143.1376  139.3551  156.3125 C.ar    1  UNL1        0.1982
      3 S         142.5861  137.9606  156.2739 S.2     1  UNL1       -0.0233
      4 C         143.6524  137.0552  155.7324 C.ar    1  UNL1        0.1870
      5 N         144.8629  137.8901  155.4364 N.ar    1  UNL1       -0.1520
      6 N         144.5448  139.3115  155.7950 N.ar    1  UNL1       -0.2060
      7 C         140.7288  140.1191  158.7128 C.ar    1  UNL1        0.1042
      8 C         139.3165  140.0078  159.2057 C.ar    1  UNL1        0.0141
      9 C         138.1728  140.2443  158.2644 C.ar    1  UNL1        0.0199
     10 C         138.4414  140.5921  156.8303 C.ar    1  UNL1        0.0830
     11 N         139.8537  140.7035  156.3374 N.ar    1  UNL1       -0.2259
     12 C         140.9974  140.4669  157.2787 C.ar    1  UNL1        0.1740
     13 C         139.0479  139.6599  160.6399 C.ar    1  UNL1        0.0008
     14 C         138.8407  140.7495  161.6498 C.ar    1  UNL1        0.0000
     15 C         138.5721  140.4016  163.0840 C.ar    1  UNL1        0.0000
     16 C         138.5106  138.9641  163.5083 C.ar    1  UNL1        0.0000
     17 C         138.7178  137.8746  162.4983 C.ar    1  UNL1        0.0000
     18 C         138.9864  138.2225  161.0642 C.ar    1  UNL1        0.0000
     19 C         137.2977  140.8286  155.8890 C.ar    1  UNL1        0.0177
     20 C         137.5588  141.0189  154.4243 C.ar    1  UNL1        0.0015
     21 C         136.4151  141.2554  153.4830 C.ar    1  UNL1        0.0000
     22 C         135.0102  141.3017  154.0065 C.ar    1  UNL1        0.0000
     23 C         134.7491  141.1114  155.4713 C.ar    1  UNL1        0.0000
     24 C         135.8928  140.8749  156.4125 C.ar    1  UNL1        0.0015
     25 N         143.0162  139.6460  160.5953 N.1     1  UNL1       -0.1907
     26 C         141.8725  139.8826  159.6541 C.1     1  UNL1        0.1035
     27 C         145.4712  140.4834  155.6597 C.ar    1  UNL1        0.0849
     28 C         146.0811  140.8074  154.3281 C.ar    1  UNL1        0.0192
     29 C         147.0075  141.9794  154.1928 C.ar    1  UNL1        0.0015
     30 C         147.3240  142.8273  155.3889 C.ar    1  UNL1        0.0001
     31 C         146.7141  142.5033  156.7205 C.ar    1  UNL1        0.0015
     32 C         145.7877  141.3314  156.8558 C.ar    1  UNL1        0.0192
     33 C         143.5297  135.5749  155.5236 C.2     1  UNL1        0.2753
     34 O         142.9870  135.0423  154.2307 O.2     1  UNL1       -0.2675
     35 N         143.9498  134.6272  156.6077 N.am    1  UNL1       -0.2787
     36 H         144.3060  134.9768  157.4563 H       1  UNL1        0.1552
     37 C         143.8271  133.1469  156.3989 C.ar    1  UNL1        0.0506
     38 C         145.0548  132.2851  156.3993 C.ar    1  UNL1        0.0147
     39 C         144.9321  130.8048  156.1904 C.ar    1  UNL1        0.0013
     40 C         143.5817  130.1863  155.9812 C.ar    1  UNL1        0.0001
     41 C         142.3540  131.0481  155.9809 C.ar    1  UNL1        0.0013
     42 C         142.4766  132.5284  156.1897 C.ar    1  UNL1        0.0147
@<TRIPOS>BOND
     1    25    26    3
     2    26     7    1
     3     7     8   ar
     4     8    13    1
     5    13    14   ar
     6    14    15   ar
     7    15    16   ar
     8    16    17   ar
     9    17    18   ar
    10     8     9   ar
    11     9    10   ar
    12    10    19    1
    13    19    20   ar
    14    20    21   ar
    15    21    22   ar
    16    22    23   ar
    17    23    24   ar
    18    10    11   ar
    19    11    12   ar
    20    12     1    1
    21     1     2    2
    22     2     3   ar
    23     3     4   ar
    24     4    33    1
    25    33    34    2
    26    33    35   am
    27    35    37    1
    28    37    38   ar
    29    38    39   ar
    30    39    40   ar
    31    40    41   ar
    32    41    42   ar
    33     4     5   ar
    34     5     6   ar
    35     6    27    1
    36    27    28   ar
    37    28    29   ar
    38    29    30   ar
    39    30    31   ar
    40    31    32   ar
    41    12     7   ar
    42     6     2   ar
    43    32    27   ar
    44    18    13   ar
    45    24    19   ar
    46    42    37   ar
    47    35    36    1
@<TRIPOS>MOLECULE
*****
 42 47 0 0 0
SMALL
GASTEIGER

@<TRIPOS>ATOM
      1 N         144.2952  140.0987  155.1739 N.2     1  UNL1       -0.2011
      2 C         144.6441  140.9216  156.3785 C.ar    1  UNL1        0.1982
      3 S         143.9417  140.8870  157.7035 S.2     1  UNL1       -0.0233
      4 C         144.6201  141.8677  158.6135 C.ar    1  UNL1        0.1870
      5 N         145.7416  142.5084  157.8509 N.ar    1  UNL1       -0.1520
      6 N         145.7564  141.9238  156.4696 N.ar    1  UNL1       -0.2060
      7 C         141.7610  139.5944  154.9026 C.ar    1  UNL1        0.1042
      8 C         140.6154  138.6280  154.9606 C.ar    1  UNL1        0.0141
      9 C         140.8582  137.1994  155.3482 C.ar    1  UNL1        0.0199
     10 C         142.2466  136.7372  155.6776 C.ar    1  UNL1        0.0830
     11 N         143.3923  137.7037  155.6195 N.ar    1  UNL1       -0.2259
     12 C         143.1495  139.1323  155.2320 C.ar    1  UNL1        0.1740
     13 C         139.2268  139.0901  154.6312 C.ar    1  UNL1        0.0008
     14 C         138.4019  139.7876  155.6718 C.ar    1  UNL1        0.0000
     15 C         137.0133  140.2498  155.3424 C.ar    1  UNL1        0.0000
     16 C         136.4498  140.0144  153.9723 C.ar    1  UNL1        0.0000
     17 C         137.2749  139.3168  152.9317 C.ar    1  UNL1        0.0000
     18 C         138.6633  138.8547  153.2611 C.ar    1  UNL1        0.0000
     19 C         142.4894  135.3086  156.0651 C.ar    1  UNL1        0.0177
     20 C         141.7921  134.2031  155.3294 C.ar    1  UNL1        0.0015
     21 C         142.0348  132.7745  155.7169 C.ar    1  UNL1        0.0000
     22 C         142.9750  132.4514  156.8401 C.ar    1  UNL1        0.0000
     23 C         143.6723  133.5570  157.5759 C.ar    1  UNL1        0.0000
     24 C         143.4296  134.9856  157.1883 C.ar    1  UNL1        0.0015
     25 N         141.2755  142.4516  154.1275 N.1     1  UNL1       -0.1907
     26 C         141.5182  141.0230  154.5150 C.1     1  UNL1        0.1035
     27 C         146.7153  142.2789  155.3721 C.ar    1  UNL1        0.0849
     28 C         148.1213  141.7573  155.4067 C.ar    1  UNL1        0.0192
     29 C         149.0802  142.1124  154.3093 C.ar    1  UNL1        0.0015
     30 C         148.6332  142.9891  153.1772 C.ar    1  UNL1        0.0001
     31 C         147.2272  143.5108  153.1426 C.ar    1  UNL1        0.0015
     32 C         146.2683  143.1556  154.2401 C.ar    1  UNL1        0.0192
     33 C         144.2430  142.1568  160.0362 C.2     1  UNL1        0.2753
     34 O         142.8842  141.7758  160.5443 O.2     1  UNL1       -0.2675
     35 N         145.2250  142.8270  160.9510 N.am    1  UNL1       -0.2787
     36 H         146.1169  143.0771  160.6175 H       1  UNL1        0.1552
     37 C         144.8479  143.1161  162.3737 C.ar    1  UNL1        0.0506
     38 C         145.2188  142.1496  163.4592 C.ar    1  UNL1        0.0147
     39 C         144.8418  142.4387  164.8819 C.ar    1  UNL1        0.0013
     40 C         144.0939  143.6944  165.2192 C.ar    1  UNL1        0.0001
     41 C         143.7230  144.6610  164.1337 C.ar    1  UNL1        0.0013
     42 C         144.1000  144.3719  162.7110 C.ar    1  UNL1        0.0147
@<TRIPOS>BOND
     1    25    26    3
     2    26     7    1
     3     7     8   ar
     4     8    13    1
     5    13    14   ar
     6    14    15   ar
     7    15    16   ar
     8    16    17   ar
     9    17    18   ar
    10     8     9   ar
    11     9    10   ar
    12    10    19    1
    13    19    20   ar
    14    20    21   ar
    15    21    22   ar
    16    22    23   ar
    17    23    24   ar
    18    10    11   ar
    19    11    12   ar
    20    12     1    1
    21     1     2    2
    22     2     3   ar
    23     3     4   ar
    24     4    33    1
    25    33    34    2
    26    33    35   am
    27    35    37    1
    28    37    38   ar
    29    38    39   ar
    30    39    40   ar
    31    40    41   ar
    32    41    42   ar
    33     4     5   ar
    34     5     6   ar
    35     6    27    1
    36    27    28   ar
    37    28    29   ar
    38    29    30   ar
    39    30    31   ar
    40    31    32   ar
    41    12     7   ar
    42     6     2   ar
    43    32    27   ar
    44    18    13   ar
    45    24    19   ar
    46    42    37   ar
    47    35    36    1
@<TRIPOS>MOLECULE
*****
 42 47 0 0 0
SMALL
GASTEIGER

@<TRIPOS>ATOM
      1 N         139.9825  140.6002  155.0180 N.2     1  UNL1       -0.2011
      2 C         139.3461  141.2400  156.2161 C.ar    1  UNL1        0.1982
      3 S         139.9196  141.2831  157.6015 S.2     1  UNL1       -0.0233
      4 C         138.9525  142.0189  158.4809 C.ar    1  UNL1        0.1870
      5 N         137.7813  142.4305  157.6390 N.ar    1  UNL1       -0.1520
      6 N         138.0246  141.9492  156.2393 N.ar    1  UNL1       -0.2060
      7 C         141.3861  138.4382  155.3429 C.ar    1  UNL1        0.1042
      8 C         142.7186  137.7618  155.4729 C.ar    1  UNL1        0.0141
      9 C         143.9800  138.5709  155.4079 C.ar    1  UNL1        0.0199
     10 C         143.9088  140.0564  155.2130 C.ar    1  UNL1        0.0830
     11 N         142.5764  140.7328  155.0830 N.ar    1  UNL1       -0.2259
     12 C         141.3150  139.9237  155.1480 C.ar    1  UNL1        0.1740
     13 C         142.7897  136.2761  155.6679 C.ar    1  UNL1        0.0008
     14 C         143.0205  135.7097  157.0375 C.ar    1  UNL1        0.0000
     15 C         143.0916  134.2240  157.2325 C.ar    1  UNL1        0.0000
     16 C         142.9320  133.3050  156.0578 C.ar    1  UNL1        0.0000
     17 C         142.7013  133.8715  154.6882 C.ar    1  UNL1        0.0000
     18 C         142.6302  135.3571  154.4932 C.ar    1  UNL1        0.0000
     19 C         145.1702  140.8656  155.1480 C.ar    1  UNL1        0.0177
     20 C         145.8701  141.0595  153.8356 C.ar    1  UNL1        0.0015
     21 C         147.1315  141.8687  153.7706 C.ar    1  UNL1        0.0000
     22 C         147.6930  142.4839  155.0180 C.ar    1  UNL1        0.0000
     23 C         146.9931  142.2899  156.3305 C.ar    1  UNL1        0.0000
     24 C         145.7317  141.4808  156.3954 C.ar    1  UNL1        0.0015
     25 N         138.8634  136.8199  155.4729 N.1     1  UNL1       -0.1907
     26 C         140.1247  137.6290  155.4079 C.1     1  UNL1        0.1035
     27 C         137.1073  142.1430  155.0684 C.ar    1  UNL1        0.0849
     28 C         137.3204  143.2947  154.1313 C.ar    1  UNL1        0.0192
     29 C         136.4031  143.4885  152.9604 C.ar    1  UNL1        0.0015
     30 C         135.2728  142.5307  152.7265 C.ar    1  UNL1        0.0001
     31 C         135.0596  141.3789  153.6635 C.ar    1  UNL1        0.0015
     32 C         135.9769  141.1851  154.8344 C.ar    1  UNL1        0.0192
     33 C         139.1261  142.2946  159.9451 C.2     1  UNL1        0.2753
     34 O         140.2983  141.7189  160.6829 O.2     1  UNL1       -0.2675
     35 N         138.1274  143.1460  160.6715 N.am    1  UNL1       -0.2787
     36 H         137.3580  143.5239  160.1873 H       1  UNL1        0.1552
     37 C         138.3010  143.4217  162.1357 C.ar    1  UNL1        0.0506
     38 C         137.6311  142.5418  163.1491 C.ar    1  UNL1        0.0147
     39 C         137.8047  142.8175  164.6133 C.ar    1  UNL1        0.0013
     40 C         138.6482  143.9731  165.0640 C.ar    1  UNL1        0.0001
     41 C         139.3181  144.8530  164.0506 C.ar    1  UNL1        0.0013
     42 C         139.1445  144.5773  162.5864 C.ar    1  UNL1        0.0147
@<TRIPOS>BOND
     1    25    26    3
     2    26     7    1
     3     7     8   ar
     4     8    13    1
     5    13    14   ar
     6    14    15   ar
     7    15    16   ar
     8    16    17   ar
     9    17    18   ar
    10     8     9   ar
    11     9    10   ar
    12    10    19    1
    13    19    20   ar
    14    20    21   ar
    15    21    22   ar
    16    22    23   ar
    17    23    24   ar
    18    10    11   ar
    19    11    12   ar
    20    12     1    1
    21     1     2    2
    22     2     3   ar
    23     3     4   ar
    24     4    33    1
    25    33    34    2
    26    33    35   am
    27    35    37    1
    28    37    38   ar
    29    38    39   ar
    30    39    40   ar
    31    40    41   ar
    32    41    42   ar
    33     4     5   ar
    34     5     6   ar
    35     6    27    1
    36    27    28   ar
    37    28    29   ar
    38    29    30   ar
    39    30    31   ar
    40    31    32   ar
    41    12     7   ar
    42     6     2   ar
    43    32    27   ar
    44    18    13   ar
    45    24    19   ar
    46    42    37   ar
    47    35    36    1
@<TRIPOS>MOLECULE
*****
 42 47 0 0 0
SMALL
GASTEIGER

@<TRIPOS>ATOM
      1 N         140.4216  137.6518  156.9253 N.2     1  UNL1       -0.2011
      2 C         141.8305  137.9739  156.5238 C.ar    1  UNL1        0.1982
      3 S         142.4063  139.3485  156.3533 S.2     1  UNL1       -0.0233
      4 C         143.8426  139.2021  155.9464 C.ar    1  UNL1        0.1870
      5 N         144.1545  137.7371  155.8655 N.ar    1  UNL1       -0.1520
      6 N         142.9109  136.9781  156.2224 N.ar    1  UNL1       -0.2060
      7 C         139.3809  139.3838  158.5584 C.ar    1  UNL1        0.1042
      8 C         138.4063  140.4915  158.8292 C.ar    1  UNL1        0.0141
      9 C         137.4979  140.9747  157.7378 C.ar    1  UNL1        0.0199
     10 C         137.5640  140.3503  156.3755 C.ar    1  UNL1        0.0830
     11 N         138.5386  139.2427  156.1047 N.ar    1  UNL1       -0.2259
     12 C         139.4470  138.7595  157.1962 C.ar    1  UNL1        0.1740
     13 C         138.3401  141.1159  160.1915 C.ar    1  UNL1        0.0008
     14 C         137.6021  140.4237  161.2988 C.ar    1  UNL1        0.0000
     15 C         137.5359  141.0481  162.6611 C.ar    1  UNL1        0.0000
     16 C         138.2078  142.3648  162.9160 C.ar    1  UNL1        0.0000
     17 C         138.9459  143.0570  161.8086 C.ar    1  UNL1        0.0000
     18 C         139.0120  142.4325  160.4464 C.ar    1  UNL1        0.0000
     19 C         136.6556  140.8336  155.2841 C.ar    1  UNL1        0.0177
     20 C         135.1819  140.5651  155.3611 C.ar    1  UNL1        0.0015
     21 C         134.2735  141.0483  154.2696 C.ar    1  UNL1        0.0000
     22 C         134.8388  141.8000  153.1012 C.ar    1  UNL1        0.0000
     23 C         136.3125  142.0685  153.0242 C.ar    1  UNL1        0.0000
     24 C         137.2209  141.5853  154.1156 C.ar    1  UNL1        0.0015
     25 N         141.1977  138.4174  160.7413 N.1     1  UNL1       -0.1907
     26 C         140.2893  138.9006  159.6499 C.1     1  UNL1        0.1035
     27 C         142.7722  135.4852  156.2695 C.ar    1  UNL1        0.0849
     28 C         143.5808  134.6874  157.2491 C.ar    1  UNL1        0.0192
     29 C         143.4421  133.1946  157.2962 C.ar    1  UNL1        0.0015
     30 C         142.4948  132.4995  156.3638 C.ar    1  UNL1        0.0001
     31 C         141.6861  133.2973  155.3841 C.ar    1  UNL1        0.0015
     32 C         141.8248  134.7901  155.3370 C.ar    1  UNL1        0.0192
     33 C         144.7992  140.3238  155.6692 C.2     1  UNL1        0.2753
     34 O         145.5903  140.9293  156.7904 O.2     1  UNL1       -0.2675
     35 N         144.9645  140.8401  154.2705 N.am    1  UNL1       -0.2787
     36 H         144.4452  140.4427  153.5345 H       1  UNL1        0.1552
     37 C         145.9210  141.9617  153.9932 C.ar    1  UNL1        0.0506
     38 C         145.4204  143.3739  153.9216 C.ar    1  UNL1        0.0147
     39 C         146.3769  144.4956  153.6443 C.ar    1  UNL1        0.0013
     40 C         147.8340  144.2051  153.4387 C.ar    1  UNL1        0.0001
     41 C         148.3347  142.7929  153.5104 C.ar    1  UNL1        0.0013
     42 C         147.3782  141.6712  153.7877 C.ar    1  UNL1        0.0147
@<TRIPOS>BOND
     1    25    26    3
     2    26     7    1
     3     7     8   ar
     4     8    13    1
     5    13    14   ar
     6    14    15   ar
     7    15    16   ar
     8    16    17   ar
     9    17    18   ar
    10     8     9   ar
    11     9    10   ar
    12    10    19    1
    13    19    20   ar
    14    20    21   ar
    15    21    22   ar
    16    22    23   ar
    17    23    24   ar
    18    10    11   ar
    19    11    12   ar
    20    12     1    1
    21     1     2    2
    22     2     3   ar
    23     3     4   ar
    24     4    33    1
    25    33    34    2
    26    33    35   am
    27    35    37    1
    28    37    38   ar
    29    38    39   ar
    30    39    40   ar
    31    40    41   ar
    32    41    42   ar
    33     4     5   ar
    34     5     6   ar
    35     6    27    1
    36    27    28   ar
    37    28    29   ar
    38    29    30   ar
    39    30    31   ar
    40    31    32   ar
    41    12     7   ar
    42     6     2   ar
    43    32    27   ar
    44    18    13   ar
    45    24    19   ar
    46    42    37   ar
    47    35    36    1
@<TRIPOS>MOLECULE
*****
 42 47 0 0 0
SMALL
GASTEIGER

@<TRIPOS>ATOM
      1 N         139.7291  141.9969  156.3934 N.2     1  UNL1       -0.2011
      2 C         138.3368  142.2116  155.8784 C.ar    1  UNL1        0.1982
      3 S         137.1886  141.2563  156.0162 S.2     1  UNL1       -0.0233
      4 C         135.9904  141.8736  155.3581 C.ar    1  UNL1        0.1870
      5 N         136.3981  143.2105  154.8134 N.ar    1  UNL1       -0.1520
      6 N         137.8483  143.4194  155.1350 N.ar    1  UNL1       -0.2060
      7 C         139.8083  140.6195  158.5949 C.ar    1  UNL1        0.1042
      8 C         140.1514  139.3544  159.3241 C.ar    1  UNL1        0.0141
      9 C         140.7586  138.2015  158.5809 C.ar    1  UNL1        0.0199
     10 C         141.0226  138.3137  157.1087 C.ar    1  UNL1        0.0830
     11 N         140.6794  139.5788  156.3795 N.ar    1  UNL1       -0.2259
     12 C         140.0723  140.7317  157.1226 C.ar    1  UNL1        0.1740
     13 C         139.8874  139.2421  160.7964 C.ar    1  UNL1        0.0008
     14 C         138.6832  138.4947  161.2876 C.ar    1  UNL1        0.0000
     15 C         138.4192  138.3824  162.7600 C.ar    1  UNL1        0.0000
     16 C         139.3595  139.0176  163.7411 C.ar    1  UNL1        0.0000
     17 C         140.5637  139.7650  163.2498 C.ar    1  UNL1        0.0000
     18 C         140.8277  139.8772  161.7775 C.ar    1  UNL1        0.0000
     19 C         141.6297  137.1609  156.3655 C.ar    1  UNL1        0.0177
     20 C         140.8568  136.4814  155.2743 C.ar    1  UNL1        0.0015
     21 C         141.4640  135.3285  154.5311 C.ar    1  UNL1        0.0000
     22 C         142.8440  134.8551  154.8793 C.ar    1  UNL1        0.0000
     23 C         143.6169  135.5345  155.9705 C.ar    1  UNL1        0.0000
     24 C         143.0098  136.6874  156.7137 C.ar    1  UNL1        0.0015
     25 N         138.5940  142.9252  160.0812 N.1     1  UNL1       -0.1907
     26 C         139.2011  141.7724  159.3380 C.1     1  UNL1        0.1035
     27 C         138.6662  144.6244  154.7762 C.ar    1  UNL1        0.0849
     28 C         139.8219  144.4915  153.8292 C.ar    1  UNL1        0.0192
     29 C         140.6399  145.6966  153.4704 C.ar    1  UNL1        0.0015
     30 C         140.3022  147.0345  154.0584 C.ar    1  UNL1        0.0001
     31 C         139.1464  147.1675  155.0054 C.ar    1  UNL1        0.0015
     32 C         138.3285  145.9624  155.3642 C.ar    1  UNL1        0.0192
     33 C         134.6243  141.2616  155.2615 C.2     1  UNL1        0.2753
     34 O         133.9459  141.1481  153.9286 O.2     1  UNL1       -0.2675
     35 N         133.9368  140.7630  156.4979 N.am    1  UNL1       -0.2787
     36 H         134.3821  140.8375  157.3728 H       1  UNL1        0.1552
     37 C         132.5707  140.1510  156.4014 C.ar    1  UNL1        0.0506
     38 C         131.3888  141.0060  156.0519 C.ar    1  UNL1        0.0147
     39 C         130.0228  140.3939  155.9553 C.ar    1  UNL1        0.0013
     40 C         129.8387  138.9269  156.2082 C.ar    1  UNL1        0.0001
     41 C         131.0206  138.0720  156.5577 C.ar    1  UNL1        0.0013
     42 C         132.3866  138.6840  156.6543 C.ar    1  UNL1        0.0147
@<TRIPOS>BOND
     1    25    26    3
     2    26     7    1
     3     7     8   ar
     4     8    13    1
     5    13    14   ar
     6    14    15   ar
     7    15    16   ar
     8    16    17   ar
     9    17    18   ar
    10     8     9   ar
    11     9    10   ar
    12    10    19    1
    13    19    20   ar
    14    20    21   ar
    15    21    22   ar
    16    22    23   ar
    17    23    24   ar
    18    10    11   ar
    19    11    12   ar
    20    12     1    1
    21     1     2    2
    22     2     3   ar
    23     3     4   ar
    24     4    33    1
    25    33    34    2
    26    33    35   am
    27    35    37    1
    28    37    38   ar
    29    38    39   ar
    30    39    40   ar
    31    40    41   ar
    32    41    42   ar
    33     4     5   ar
    34     5     6   ar
    35     6    27    1
    36    27    28   ar
    37    28    29   ar
    38    29    30   ar
    39    30    31   ar
    40    31    32   ar
    41    12     7   ar
    42     6     2   ar
    43    32    27   ar
    44    18    13   ar
    45    24    19   ar
    46    42    37   ar
    47    35    36    1
@<TRIPOS>MOLECULE
*****
 42 47 0 0 0
SMALL
GASTEIGER

@<TRIPOS>ATOM
      1 N         138.6596  141.1636  159.3525 N.2     1  UNL1       -0.2011
      2 C         139.1682  140.1609  158.3597 C.ar    1  UNL1        0.1982
      3 S         140.2517  139.1521  158.6015 S.2     1  UNL1       -0.0233
      4 C         140.4358  138.3586  157.3420 C.ar    1  UNL1        0.1870
      5 N         139.4660  138.8770  156.3217 N.ar    1  UNL1       -0.1520
      6 N         138.6827  139.9909  156.9507 N.ar    1  UNL1       -0.2060
      7 C         140.2903  142.2391  161.0655 C.ar    1  UNL1        0.1042
      8 C         140.8757  142.2916  162.4455 C.ar    1  UNL1        0.0141
      9 C         140.4159  141.3209  163.4926 C.ar    1  UNL1        0.0199
     10 C         139.3707  140.2979  163.1597 C.ar    1  UNL1        0.0830
     11 N         138.7853  140.2454  161.7797 N.ar    1  UNL1       -0.2259
     12 C         139.2451  141.2161  160.7326 C.ar    1  UNL1        0.1740
     13 C         141.9209  143.3147  162.7785 C.ar    1  UNL1        0.0008
     14 C         141.5410  144.5603  163.5228 C.ar    1  UNL1        0.0000
     15 C         142.5862  145.5834  163.8558 C.ar    1  UNL1        0.0000
     16 C         144.0114  145.3608  163.4444 C.ar    1  UNL1        0.0000
     17 C         144.3914  144.1151  162.7001 C.ar    1  UNL1        0.0000
     18 C         143.3462  143.0921  162.3671 C.ar    1  UNL1        0.0000
     19 C         138.9109  139.3272  164.2069 C.ar    1  UNL1        0.0177
     20 C         139.0863  137.8531  163.9918 C.ar    1  UNL1        0.0015
     21 C         138.6265  136.8825  165.0389 C.ar    1  UNL1        0.0000
     22 C         137.9914  137.3859  166.3011 C.ar    1  UNL1        0.0000
     23 C         137.8160  138.8600  166.5161 C.ar    1  UNL1        0.0000
     24 C         138.2758  139.8306  165.4690 C.ar    1  UNL1        0.0015
     25 N         141.2098  144.1804  158.9713 N.1     1  UNL1       -0.1907
     26 C         140.7501  143.2098  160.0184 C.1     1  UNL1        0.1035
     27 C         137.6033  140.7937  156.2871 C.ar    1  UNL1        0.0849
     28 C         137.7302  142.2852  156.1900 C.ar    1  UNL1        0.0192
     29 C         136.6508  143.0881  155.5264 C.ar    1  UNL1        0.0015
     30 C         135.4446  142.3996  154.9600 C.ar    1  UNL1        0.0001
     31 C         135.3176  140.9081  155.0571 C.ar    1  UNL1        0.0015
     32 C         136.3970  140.1052  155.7206 C.ar    1  UNL1        0.0192
     33 C         141.4172  137.2426  157.1384 C.2     1  UNL1        0.2753
     34 O         142.7563  137.2892  157.8125 O.2     1  UNL1       -0.2675
     35 N         141.0594  136.0800  156.2607 N.am    1  UNL1       -0.2787
     36 H         140.1805  136.0494  155.8183 H       1  UNL1        0.1552
     37 C         142.0409  134.9640  156.0572 C.ar    1  UNL1        0.0506
     38 C         143.0453  134.6446  157.1245 C.ar    1  UNL1        0.0147
     39 C         144.0267  133.5287  156.9209 C.ar    1  UNL1        0.0013
     40 C         144.0037  132.7321  155.6501 C.ar    1  UNL1        0.0001
     41 C         142.9992  133.0516  154.5828 C.ar    1  UNL1        0.0013
     42 C         142.0178  134.1675  154.7864 C.ar    1  UNL1        0.0147
@<TRIPOS>BOND
     1    25    26    3
     2    26     7    1
     3     7     8   ar
     4     8    13    1
     5    13    14   ar
     6    14    15   ar
     7    15    16   ar
     8    16    17   ar
     9    17    18   ar
    10     8     9   ar
    11     9    10   ar
    12    10    19    1
    13    19    20   ar
    14    20    21   ar
    15    21    22   ar
    16    22    23   ar
    17    23    24   ar
    18    10    11   ar
    19    11    12   ar
    20    12     1    1
    21     1     2    2
    22     2     3   ar
    23     3     4   ar
    24     4    33    1
    25    33    34    2
    26    33    35   am
    27    35    37    1
    28    37    38   ar
    29    38    39   ar
    30    39    40   ar
    31    40    41   ar
    32    41    42   ar
    33     4     5   ar
    34     5     6   ar
    35     6    27    1
    36    27    28   ar
    37    28    29   ar
    38    29    30   ar
    39    30    31   ar
    40    31    32   ar
    41    12     7   ar
    42     6     2   ar
    43    32    27   ar
    44    18    13   ar
    45    24    19   ar
    46    42    37   ar
    47    35    36    1
