@<TRIPOS>MOLECULE
*****
 29 32 0 0 0
SMALL
GASTEIGER

@<TRIPOS>ATOM
      1 N         139.1633  140.6483  164.2094 N.3     1  UNL1       -0.2706
      2 C         140.4213  140.5227  163.4023 C.3     1  UNL1        0.0726
      3 C         140.6432  141.4130  162.2156 C.3     1  UNL1        0.0242
      4 C         139.6069  142.4289  161.8361 C.3     1  UNL1        0.0528
      5 C         138.3488  142.5546  162.6432 C.3     1  UNL1        0.1304
      6 O         137.3125  143.5704  162.2637 O.3     1  UNL1       -0.3827
      7 C         138.1270  141.6642  163.8299 C.3     1  UNL1        0.1020
      8 H         136.5682  143.5202  162.8837 H       1  UNL1        0.2104
      9 C         139.8287  143.3192  160.6494 C.ar    1  UNL1       -0.0093
     10 C         139.4077  142.8662  159.2828 C.ar    1  UNL1       -0.0011
     11 C         139.6295  143.7565  158.0962 C.ar    1  UNL1        0.0294
     12 C         140.2723  145.0998  158.2761 C.ar    1  UNL1        0.1410
     13 F         140.4942  145.9901  157.0895 F       1  UNL1       -0.2041
     14 C         140.6933  145.5528  159.6427 C.ar    1  UNL1        0.0407
     15 C         140.4714  144.6625  160.8294 C.ar    1  UNL1        0.0560
     16 CL        140.8924  145.1155  162.1960 Cl      1  UNL1       -0.0825
     17 C         138.9414  139.7581  165.3960 C.3     1  UNL1        0.0725
     18 O         138.4817  139.7501  170.5718 O.3     1  UNL1       -0.3785
     19 C         139.2216  140.1629  169.3340 C.3     1  UNL1        0.1499
     20 C         138.7116  139.7541  167.9840 C.3     1  UNL1        0.0371
     21 C         139.4515  140.1669  166.7462 C.3     1  UNL1        0.0232
     22 C         140.7015  140.9884  166.8585 C.3     1  UNL1        0.0291
     23 C         141.2116  141.3972  168.2086 C.ar    1  UNL1       -0.0062
     24 C         142.4615  142.2187  168.3209 C.ar    1  UNL1       -0.0014
     25 C         142.9715  142.6275  169.6710 C.ar    1  UNL1        0.0203
     26 C         142.2316  142.2147  170.9088 C.ar    1  UNL1        0.0985
     27 N         140.9816  141.3932  170.7965 N.ar    1  UNL1       -0.2461
     28 C         140.4716  140.9844  169.4464 C.ar    1  UNL1        0.0817
     29 H         137.7026  139.2280  170.3239 H       1  UNL1        0.2108
@<TRIPOS>BOND
     1    19    18    1
     2    19    20    1
     3    20    21    1
     4    21    17    1
     5    17     1    1
     6     1     2    1
     7     2     3    1
     8     3     4    1
     9     4     9    1
    10     9    10   ar
    11    10    11   ar
    12    11    12   ar
    13    12    13    1
    14    12    14   ar
    15    14    15   ar
    16    15    16    1
    17     4     5    1
    18     5     6    1
    19     5     7    1
    20    21    22    1
    21    22    23    1
    22    23    24   ar
    23    24    25   ar
    24    25    26   ar
    25    26    27   ar
    26    27    28   ar
    27    28    19    1
    28     7     1    1
    29    28    23   ar
    30    15     9   ar
    31    18    29    1
    32     6     8    1
@<TRIPOS>MOLECULE
*****
 29 32 0 0 0
SMALL
GASTEIGER

@<TRIPOS>ATOM
      1 N         138.5353  141.0462  164.0890 N.3     1  UNL1       -0.2706
      2 C         139.2677  142.3553  164.0778 C.3     1  UNL1        0.0726
      3 C         140.0627  142.7802  165.2767 C.3     1  UNL1        0.0242
      4 C         140.1253  141.8960  166.4869 C.3     1  UNL1        0.0528
      5 C         139.3930  140.5870  166.4981 C.3     1  UNL1        0.1304
      6 O         139.4556  139.7029  167.7082 O.3     1  UNL1       -0.3827
      7 C         138.5980  140.1621  165.2991 C.3     1  UNL1        0.1020
      8 H         138.9314  138.9020  167.5510 H       1  UNL1        0.2104
      9 C         140.9203  142.3209  167.6858 C.ar    1  UNL1       -0.0093
     10 C         140.2813  143.1645  168.7489 C.ar    1  UNL1       -0.0011
     11 C         141.0763  143.5894  169.9478 C.ar    1  UNL1        0.0294
     12 C         142.5103  143.1707  170.0837 C.ar    1  UNL1        0.1410
     13 F         143.3053  143.5956  171.2826 F       1  UNL1       -0.2041
     14 C         143.1493  142.3271  169.0207 C.ar    1  UNL1        0.0407
     15 C         142.3542  141.9022  167.8217 C.ar    1  UNL1        0.0560
     16 CL        142.9932  141.0586  166.7587 Cl      1  UNL1       -0.0825
     17 C         137.7404  140.6213  162.8901 C.3     1  UNL1        0.0725
     18 O         137.8703  140.0598  157.7260 O.3     1  UNL1       -0.3785
     19 C         138.5091  139.8699  159.0698 C.3     1  UNL1        0.1499
     20 C         137.8054  140.3406  160.3080 C.3     1  UNL1        0.0371
     21 C         138.4442  140.1507  161.6519 C.3     1  UNL1        0.0232
     22 C         139.7867  139.4901  161.7575 C.3     1  UNL1        0.0291
     23 C         140.4906  139.0194  160.5192 C.ar    1  UNL1       -0.0062
     24 C         141.8331  138.3589  160.6248 C.ar    1  UNL1       -0.0014
     25 C         142.5368  137.8883  159.3866 C.ar    1  UNL1        0.0203
     26 C         141.8980  138.0782  158.0428 C.ar    1  UNL1        0.0985
     27 N         140.5555  138.7387  157.9372 N.ar    1  UNL1       -0.2461
     28 C         139.8517  139.2093  159.1754 C.ar    1  UNL1        0.0817
     29 H         137.0123  140.4990  157.8350 H       1  UNL1        0.2108
@<TRIPOS>BOND
     1    19    18    1
     2    19    20    1
     3    20    21    1
     4    21    17    1
     5    17     1    1
     6     1     2    1
     7     2     3    1
     8     3     4    1
     9     4     9    1
    10     9    10   ar
    11    10    11   ar
    12    11    12   ar
    13    12    13    1
    14    12    14   ar
    15    14    15   ar
    16    15    16    1
    17     4     5    1
    18     5     6    1
    19     5     7    1
    20    21    22    1
    21    22    23    1
    22    23    24   ar
    23    24    25   ar
    24    25    26   ar
    25    26    27   ar
    26    27    28   ar
    27    28    19    1
    28     7     1    1
    29    28    23   ar
    30    15     9   ar
    31    18    29    1
    32     6     8    1
@<TRIPOS>MOLECULE
*****
 29 32 0 0 0
SMALL
GASTEIGER

@<TRIPOS>ATOM
      1 N         139.1185  139.4928  160.2981 N.3     1  UNL1       -0.2706
      2 C         140.1627  138.7925  161.1161 C.3     1  UNL1        0.0726
      3 C         140.1141  138.8628  162.6137 C.3     1  UNL1        0.0242
      4 C         139.0212  139.6335  163.2932 C.3     1  UNL1        0.0528
      5 C         137.9770  140.3338  162.4752 C.3     1  UNL1        0.1304
      6 O         136.8841  141.1044  163.1546 O.3     1  UNL1       -0.3827
      7 C         138.0257  140.2634  160.9776 C.3     1  UNL1        0.1020
      8 H         136.2981  141.4923  162.4860 H       1  UNL1        0.2104
      9 C         138.9726  139.7039  164.7907 C.ar    1  UNL1       -0.0093
     10 C         138.1451  138.7183  165.5614 C.ar    1  UNL1       -0.0011
     11 C         138.0965  138.7886  167.0589 C.ar    1  UNL1        0.0294
     12 C         138.8753  139.8446  167.7859 C.ar    1  UNL1        0.1410
     13 F         138.8267  139.9150  169.2834 F       1  UNL1       -0.2041
     14 C         139.7028  140.8302  167.0152 C.ar    1  UNL1        0.0407
     15 C         139.7514  140.7598  165.5176 C.ar    1  UNL1        0.0560
     16 CL        140.5788  141.7454  164.7469 Cl      1  UNL1       -0.0825
     17 C         139.1671  139.4224  158.8006 C.3     1  UNL1        0.0725
     18 O         144.2083  139.8558  157.6177 O.3     1  UNL1       -0.3785
     19 C         142.9112  139.1084  157.5226 C.3     1  UNL1        0.1499
     20 C         141.6877  139.6391  158.2091 C.3     1  UNL1        0.0371
     21 C         140.3907  138.8917  158.1140 C.3     1  UNL1        0.0232
     22 C         140.3172  137.6136  157.3323 C.3     1  UNL1        0.0291
     23 C         141.5407  137.0828  156.6457 C.ar    1  UNL1       -0.0062
     24 C         141.4672  135.8047  155.8641 C.ar    1  UNL1       -0.0014
     25 C         142.6907  135.2741  155.1776 C.ar    1  UNL1        0.0203
     26 C         143.9877  136.0215  155.2727 C.ar    1  UNL1        0.0985
     27 N         144.0613  137.2996  156.0543 N.ar    1  UNL1       -0.2461
     28 C         142.8378  137.8303  156.7409 C.ar    1  UNL1        0.0817
     29 H         144.0831  140.6537  158.1550 H       1  UNL1        0.2108
@<TRIPOS>BOND
     1    19    18    1
     2    19    20    1
     3    20    21    1
     4    21    17    1
     5    17     1    1
     6     1     2    1
     7     2     3    1
     8     3     4    1
     9     4     9    1
    10     9    10   ar
    11    10    11   ar
    12    11    12   ar
    13    12    13    1
    14    12    14   ar
    15    14    15   ar
    16    15    16    1
    17     4     5    1
    18     5     6    1
    19     5     7    1
    20    21    22    1
    21    22    23    1
    22    23    24   ar
    23    24    25   ar
    24    25    26   ar
    25    26    27   ar
    26    27    28   ar
    27    28    19    1
    28     7     1    1
    29    28    23   ar
    30    15     9   ar
    31    18    29    1
    32     6     8    1
@<TRIPOS>MOLECULE
*****
 29 32 0 0 0
SMALL
GASTEIGER

@<TRIPOS>ATOM
      1 N         142.9100  140.9027  164.0788 N.3     1  UNL1       -0.2706
      2 C         141.6913  140.6195  163.2514 C.3     1  UNL1        0.0726
      3 C         141.3170  141.5402  162.1279 C.3     1  UNL1        0.0242
      4 C         142.1614  142.7441  161.8318 C.3     1  UNL1        0.0528
      5 C         143.3802  143.0272  162.6592 C.3     1  UNL1        0.1304
      6 O         144.2246  144.2310  162.3631 O.3     1  UNL1       -0.3827
      7 C         143.7544  142.1065  163.7827 C.3     1  UNL1        0.1020
      8 H         144.9674  144.2661  162.9860 H       1  UNL1        0.2104
      9 C         141.7872  143.6648  160.7083 C.ar    1  UNL1       -0.0093
     10 C         142.4125  143.4908  159.3560 C.ar    1  UNL1       -0.0011
     11 C         142.0382  144.4115  158.2326 C.ar    1  UNL1        0.0294
     12 C         141.0385  145.5062  158.4614 C.ar    1  UNL1        0.1410
     13 F         140.6643  146.4269  157.3379 F       1  UNL1       -0.2041
     14 C         140.4132  145.6802  159.8137 C.ar    1  UNL1        0.0407
     15 C         140.7876  144.7595  160.9372 C.ar    1  UNL1        0.0560
     16 CL        140.1623  144.9335  162.2895 Cl      1  UNL1       -0.0825
     17 C         143.2843  139.9820  165.2022 C.3     1  UNL1        0.0725
     18 O         142.7107  138.4721  170.1410 O.3     1  UNL1       -0.3785
     19 C         142.4696  139.4765  169.0533 C.3     1  UNL1        0.1499
     20 C         142.9974  139.2271  167.6716 C.3     1  UNL1        0.0371
     21 C         142.7564  140.2315  166.5840 C.3     1  UNL1        0.0232
     22 C         141.9875  141.4854  166.8780 C.3     1  UNL1        0.0291
     23 C         141.4596  141.7349  168.2597 C.ar    1  UNL1       -0.0062
     24 C         140.6907  142.9888  168.5538 C.ar    1  UNL1       -0.0014
     25 C         140.1628  143.2382  169.9355 C.ar    1  UNL1        0.0203
     26 C         140.4039  142.2338  171.0231 C.ar    1  UNL1        0.0985
     27 N         141.1728  140.9799  170.7291 N.ar    1  UNL1       -0.2461
     28 C         141.7006  140.7305  169.3474 C.ar    1  UNL1        0.0817
     29 H         143.2191  137.7264  169.7856 H       1  UNL1        0.2108
@<TRIPOS>BOND
     1    19    18    1
     2    19    20    1
     3    20    21    1
     4    21    17    1
     5    17     1    1
     6     1     2    1
     7     2     3    1
     8     3     4    1
     9     4     9    1
    10     9    10   ar
    11    10    11   ar
    12    11    12   ar
    13    12    13    1
    14    12    14   ar
    15    14    15   ar
    16    15    16    1
    17     4     5    1
    18     5     6    1
    19     5     7    1
    20    21    22    1
    21    22    23    1
    22    23    24   ar
    23    24    25   ar
    24    25    26   ar
    25    26    27   ar
    26    27    28   ar
    27    28    19    1
    28     7     1    1
    29    28    23   ar
    30    15     9   ar
    31    18    29    1
    32     6     8    1
@<TRIPOS>MOLECULE
*****
 29 32 0 0 0
SMALL
GASTEIGER

@<TRIPOS>ATOM
      1 N         140.0560  139.9543  162.4439 N.3     1  UNL1       -0.2706
      2 C         141.2404  140.1521  161.5450 C.3     1  UNL1        0.0726
      3 C         141.2648  141.2984  160.5779 C.3     1  UNL1        0.0242
      4 C         140.1048  142.2470  160.5097 C.3     1  UNL1        0.0528
      5 C         138.9204  142.0492  161.4086 C.3     1  UNL1        0.1304
      6 O         137.7604  142.9977  161.3404 O.3     1  UNL1       -0.3827
      7 C         138.8960  140.9028  162.3758 C.3     1  UNL1        0.1020
      8 H         137.0848  142.7290  161.9826 H       1  UNL1        0.2104
      9 C         140.1292  143.3933  159.5426 C.ar    1  UNL1       -0.0093
     10 C         139.5752  143.2196  158.1595 C.ar    1  UNL1       -0.0011
     11 C         139.5996  144.3659  157.1924 C.ar    1  UNL1        0.0294
     12 C         140.1780  145.6860  157.6083 C.ar    1  UNL1        0.1410
     13 F         140.2024  146.8323  156.6412 F       1  UNL1       -0.2041
     14 C         140.7319  145.8597  158.9914 C.ar    1  UNL1        0.0407
     15 C         140.7075  144.7133  159.9586 C.ar    1  UNL1        0.0560
     16 CL        141.2615  144.8870  161.3417 Cl      1  UNL1       -0.0825
     17 C         140.0316  138.8080  163.4110 C.3     1  UNL1        0.0725
     18 O         136.9404  137.7786  167.4588 O.3     1  UNL1       -0.3785
     19 C         138.0970  138.5264  166.8647 C.3     1  UNL1        0.1499
     20 C         138.4860  138.2933  165.4350 C.3     1  UNL1        0.0371
     21 C         139.6426  139.0412  164.8409 C.3     1  UNL1        0.0232
     22 C         140.4102  140.0221  165.6766 C.3     1  UNL1        0.0291
     23 C         140.0212  140.2553  167.1064 C.ar    1  UNL1       -0.0062
     24 C         140.7888  141.2363  167.9421 C.ar    1  UNL1       -0.0014
     25 C         140.3998  141.4694  169.3719 C.ar    1  UNL1        0.0203
     26 C         139.2432  140.7215  169.9660 C.ar    1  UNL1        0.0985
     27 N         138.4756  139.7406  169.1303 N.ar    1  UNL1       -0.2461
     28 C         138.8646  139.5074  167.7005 C.ar    1  UNL1        0.0817
     29 H         136.5578  137.1900  166.7894 H       1  UNL1        0.2108
@<TRIPOS>BOND
     1    19    18    1
     2    19    20    1
     3    20    21    1
     4    21    17    1
     5    17     1    1
     6     1     2    1
     7     2     3    1
     8     3     4    1
     9     4     9    1
    10     9    10   ar
    11    10    11   ar
    12    11    12   ar
    13    12    13    1
    14    12    14   ar
    15    14    15   ar
    16    15    16    1
    17     4     5    1
    18     5     6    1
    19     5     7    1
    20    21    22    1
    21    22    23    1
    22    23    24   ar
    23    24    25   ar
    24    25    26   ar
    25    26    27   ar
    26    27    28   ar
    27    28    19    1
    28     7     1    1
    29    28    23   ar
    30    15     9   ar
    31    18    29    1
    32     6     8    1
@<TRIPOS>MOLECULE
*****
 29 32 0 0 0
SMALL
GASTEIGER

@<TRIPOS>ATOM
      1 N         140.5896  144.6605  163.4722 N.3     1  UNL1       -0.2706
      2 C         139.3335  144.7279  164.2892 C.3     1  UNL1        0.0726
      3 C         139.2233  143.9413  165.5616 C.3     1  UNL1        0.0242
      4 C         140.3693  143.0872  166.0170 C.3     1  UNL1        0.0528
      5 C         141.6254  143.0198  165.1999 C.3     1  UNL1        0.1304
      6 O         142.7714  142.1658  165.6553 O.3     1  UNL1       -0.3827
      7 C         141.7356  143.8065  163.9275 C.3     1  UNL1        0.1020
      8 H         143.4993  142.2349  165.0179 H       1  UNL1        0.2104
      9 C         140.2591  142.3005  167.2894 C.ar    1  UNL1       -0.0093
     10 C         140.5528  142.9578  168.6053 C.ar    1  UNL1       -0.0011
     11 C         140.4426  142.1712  169.8777 C.ar    1  UNL1        0.0294
     12 C         140.0388  140.7272  169.8342 C.ar    1  UNL1        0.1410
     13 F         139.9286  139.9406  171.1066 F       1  UNL1       -0.2041
     14 C         139.7451  140.0699  168.5183 C.ar    1  UNL1        0.0407
     15 C         139.8553  140.8566  167.2458 C.ar    1  UNL1        0.0560
     16 CL        139.5616  140.1993  165.9299 Cl      1  UNL1       -0.0825
     17 C         140.6998  145.4471  162.1998 C.3     1  UNL1        0.0725
     18 O         140.5805  145.5685  157.0064 O.3     1  UNL1       -0.3785
     19 C         140.2482  144.8814  158.2977 C.3     1  UNL1        0.1499
     20 C         140.6401  145.5078  159.6031 C.3     1  UNL1        0.0371
     21 C         140.3078  144.8207  160.8944 C.3     1  UNL1        0.0232
     22 C         139.5836  143.5072  160.8803 C.3     1  UNL1        0.0291
     23 C         139.1917  142.8808  159.5749 C.ar    1  UNL1       -0.0062
     24 C         138.4674  141.5673  159.5608 C.ar    1  UNL1       -0.0014
     25 C         138.0756  140.9409  158.2555 C.ar    1  UNL1        0.0203
     26 C         138.4079  141.6280  156.9642 C.ar    1  UNL1        0.0985
     27 N         139.1321  142.9415  156.9782 N.ar    1  UNL1       -0.2461
     28 C         139.5240  143.5679  158.2836 C.ar    1  UNL1        0.0817
     29 H         141.0451  146.3995  157.1925 H       1  UNL1        0.2108
@<TRIPOS>BOND
     1    19    18    1
     2    19    20    1
     3    20    21    1
     4    21    17    1
     5    17     1    1
     6     1     2    1
     7     2     3    1
     8     3     4    1
     9     4     9    1
    10     9    10   ar
    11    10    11   ar
    12    11    12   ar
    13    12    13    1
    14    12    14   ar
    15    14    15   ar
    16    15    16    1
    17     4     5    1
    18     5     6    1
    19     5     7    1
    20    21    22    1
    21    22    23    1
    22    23    24   ar
    23    24    25   ar
    24    25    26   ar
    25    26    27   ar
    26    27    28   ar
    27    28    19    1
    28     7     1    1
    29    28    23   ar
    30    15     9   ar
    31    18    29    1
    32     6     8    1
@<TRIPOS>MOLECULE
*****
 29 32 0 0 0
SMALL
GASTEIGER

@<TRIPOS>ATOM
      1 N         141.3325  138.3687  164.0119 N.3     1  UNL1       -0.2706
      2 C         140.0449  139.1338  164.0942 C.3     1  UNL1        0.0726
      3 C         139.7244  139.9327  165.3226 C.3     1  UNL1        0.0242
      4 C         140.6915  139.9665  166.4688 C.3     1  UNL1        0.0528
      5 C         141.9791  139.2014  166.3865 C.3     1  UNL1        0.1304
      6 O         142.9462  139.2352  167.5326 O.3     1  UNL1       -0.3827
      7 C         142.2996  138.4025  165.1580 C.3     1  UNL1        0.1020
      8 H         143.7207  138.6919  167.3182 H       1  UNL1        0.2104
      9 C         140.3711  140.7654  167.6972 C.ar    1  UNL1       -0.0093
     10 C         139.5771  140.1458  168.8089 C.ar    1  UNL1       -0.0011
     11 C         139.2567  140.9447  170.0373 C.ar    1  UNL1        0.0294
     12 C         139.7301  142.3633  170.1540 C.ar    1  UNL1        0.1410
     13 F         139.4097  143.1622  171.3824 F       1  UNL1       -0.2041
     14 C         140.5241  142.9829  169.0424 C.ar    1  UNL1        0.0407
     15 C         140.8445  142.1839  167.8139 C.ar    1  UNL1        0.0560
     16 CL        141.6385  142.8035  166.7023 Cl      1  UNL1       -0.0825
     17 C         141.6529  137.5698  162.7835 C.3     1  UNL1        0.0725
     18 O         143.1044  137.4366  157.7960 O.3     1  UNL1       -0.3785
     19 C         142.9910  138.1752  159.0966 C.3     1  UNL1        0.1499
     20 C         142.3787  137.5033  160.2897 C.3     1  UNL1        0.0371
     21 C         142.2653  138.2418  161.5904 C.3     1  UNL1        0.0232
     22 C         142.7641  139.6523  161.6979 C.3     1  UNL1        0.0291
     23 C         143.3764  140.3243  160.5047 C.ar    1  UNL1       -0.0062
     24 C         143.8753  141.7348  160.6123 C.ar    1  UNL1       -0.0014
     25 C         144.4876  142.4067  159.4192 C.ar    1  UNL1        0.0203
     26 C         144.6010  141.6682  158.1185 C.ar    1  UNL1        0.0985
     27 N         144.1022  140.2577  158.0110 N.ar    1  UNL1       -0.2461
     28 C         143.4899  139.5858  159.2041 C.ar    1  UNL1        0.0817
     29 H         142.7377  136.5444  157.8977 H       1  UNL1        0.2108
@<TRIPOS>BOND
     1    19    18    1
     2    19    20    1
     3    20    21    1
     4    21    17    1
     5    17     1    1
     6     1     2    1
     7     2     3    1
     8     3     4    1
     9     4     9    1
    10     9    10   ar
    11    10    11   ar
    12    11    12   ar
    13    12    13    1
    14    12    14   ar
    15    14    15   ar
    16    15    16    1
    17     4     5    1
    18     5     6    1
    19     5     7    1
    20    21    22    1
    21    22    23    1
    22    23    24   ar
    23    24    25   ar
    24    25    26   ar
    25    26    27   ar
    26    27    28   ar
    27    28    19    1
    28     7     1    1
    29    28    23   ar
    30    15     9   ar
    31    18    29    1
    32     6     8    1
@<TRIPOS>MOLECULE
*****
 29 32 0 0 0
SMALL
GASTEIGER

@<TRIPOS>ATOM
      1 N         140.5626  144.7153  163.4829 N.3     1  UNL1       -0.2706
      2 C         139.3049  144.7640  164.2989 C.3     1  UNL1        0.0726
      3 C         139.1975  143.9592  165.5601 C.3     1  UNL1        0.0242
      4 C         140.3478  143.1056  166.0054 C.3     1  UNL1        0.0528
      5 C         141.6055  143.0569  165.1894 C.3     1  UNL1        0.1304
      6 O         142.7558  142.2034  165.6346 O.3     1  UNL1       -0.3827
      7 C         141.7129  143.8618  163.9281 C.3     1  UNL1        0.1020
      8 H         143.4843  142.2856  164.9994 H       1  UNL1        0.2104
      9 C         140.2405  142.3008  167.2666 C.ar    1  UNL1       -0.0093
     10 C         140.5436  142.9373  168.5906 C.ar    1  UNL1       -0.0011
     11 C         140.4363  142.1325  169.8518 C.ar    1  UNL1        0.0294
     12 C         140.0257  140.6911  169.7891 C.ar    1  UNL1        0.1410
     13 F         139.9183  139.8863  171.0503 F       1  UNL1       -0.2041
     14 C         139.7225  140.0546  168.4651 C.ar    1  UNL1        0.0407
     15 C         139.8299  140.8595  167.2038 C.ar    1  UNL1        0.0560
     16 CL        139.5267  140.2230  165.8798 Cl      1  UNL1       -0.0825
     17 C         140.6700  145.5201  162.2217 C.3     1  UNL1        0.0725
     18 O         138.4807  141.6694  159.5051 O.3     1  UNL1       -0.3785
     19 C         139.2205  142.9737  159.5449 C.3     1  UNL1        0.1499
     20 C         139.5753  143.5948  160.8633 C.3     1  UNL1        0.0371
     21 C         140.3152  144.8990  160.9031 C.3     1  UNL1        0.0232
     22 C         140.7002  145.5822  159.6245 C.3     1  UNL1        0.0291
     23 C         140.3455  144.9611  158.3059 C.ar    1  UNL1       -0.0062
     24 C         140.7305  145.6443  157.0273 C.ar    1  UNL1       -0.0014
     25 C         140.3757  145.0232  155.7088 C.ar    1  UNL1        0.0203
     26 C         139.6359  143.7189  155.6690 C.ar    1  UNL1        0.0985
     27 N         139.2508  143.0358  156.9477 N.ar    1  UNL1       -0.2461
     28 C         139.6056  143.6569  158.2661 C.ar    1  UNL1        0.0817
     29 H         138.3106  141.3665  160.4107 H       1  UNL1        0.2108
@<TRIPOS>BOND
     1    19    18    1
     2    19    20    1
     3    20    21    1
     4    21    17    1
     5    17     1    1
     6     1     2    1
     7     2     3    1
     8     3     4    1
     9     4     9    1
    10     9    10   ar
    11    10    11   ar
    12    11    12   ar
    13    12    13    1
    14    12    14   ar
    15    14    15   ar
    16    15    16    1
    17     4     5    1
    18     5     6    1
    19     5     7    1
    20    21    22    1
    21    22    23    1
    22    23    24   ar
    23    24    25   ar
    24    25    26   ar
    25    26    27   ar
    26    27    28   ar
    27    28    19    1
    28     7     1    1
    29    28    23   ar
    30    15     9   ar
    31    18    29    1
    32     6     8    1
@<TRIPOS>MOLECULE
*****
 29 32 0 0 0
SMALL
GASTEIGER

@<TRIPOS>ATOM
      1 N         139.0147  139.7927  159.9398 N.3     1  UNL1       -0.2706
      2 C         140.1713  139.2028  160.6909 C.3     1  UNL1        0.0726
      3 C         140.1939  139.2488  162.1900 C.3     1  UNL1        0.0242
      4 C         139.0597  139.8846  162.9380 C.3     1  UNL1        0.0528
      5 C         137.9030  140.4744  162.1869 C.3     1  UNL1        0.1304
      6 O         136.7689  141.1102  162.9348 O.3     1  UNL1       -0.3827
      7 C         137.8805  140.4284  160.6877 C.3     1  UNL1        0.1020
      8 H         136.1093  141.4387  162.3039 H       1  UNL1        0.2104
      9 C         139.0822  139.9305  164.4371 C.ar    1  UNL1       -0.0093
     10 C         138.3063  138.9210  165.2302 C.ar    1  UNL1       -0.0011
     11 C         138.3288  138.9670  166.7293 C.ar    1  UNL1        0.0294
     12 C         139.1273  140.0224  167.4354 C.ar    1  UNL1        0.1410
     13 F         139.1498  140.0684  168.9345 F       1  UNL1       -0.2041
     14 C         139.9032  141.0319  166.6424 C.ar    1  UNL1        0.0407
     15 C         139.8806  140.9859  165.1432 C.ar    1  UNL1        0.0560
     16 CL        140.6565  141.9954  164.3501 Cl      1  UNL1       -0.0825
     17 C         138.9922  139.7467  158.4407 C.3     1  UNL1        0.0725
     18 O         135.3563  142.1278  155.5927 O.3     1  UNL1       -0.3785
     19 C         136.7110  142.1318  156.2366 C.3     1  UNL1        0.1499
     20 C         137.1742  140.9373  157.0167 C.3     1  UNL1        0.0371
     21 C         138.5290  140.9413  157.6605 C.3     1  UNL1        0.0232
     22 C         139.4206  142.1398  157.5243 C.3     1  UNL1        0.0291
     23 C         138.9574  143.3344  156.7442 C.ar    1  UNL1       -0.0062
     24 C         139.8490  144.5329  156.6080 C.ar    1  UNL1       -0.0014
     25 C         139.3858  145.7274  155.8279 C.ar    1  UNL1        0.0203
     26 C         138.0310  145.7234  155.1840 C.ar    1  UNL1        0.0985
     27 N         137.1394  144.5249  155.3202 N.ar    1  UNL1       -0.2461
     28 C         137.6026  143.3304  156.1003 C.ar    1  UNL1        0.0817
     29 H         134.9134  141.2845  155.7764 H       1  UNL1        0.2108
@<TRIPOS>BOND
     1    19    18    1
     2    19    20    1
     3    20    21    1
     4    21    17    1
     5    17     1    1
     6     1     2    1
     7     2     3    1
     8     3     4    1
     9     4     9    1
    10     9    10   ar
    11    10    11   ar
    12    11    12   ar
    13    12    13    1
    14    12    14   ar
    15    14    15   ar
    16    15    16    1
    17     4     5    1
    18     5     6    1
    19     5     7    1
    20    21    22    1
    21    22    23    1
    22    23    24   ar
    23    24    25   ar
    24    25    26   ar
    25    26    27   ar
    26    27    28   ar
    27    28    19    1
    28     7     1    1
    29    28    23   ar
    30    15     9   ar
    31    18    29    1
    32     6     8    1
