@<TRIPOS>MOLECULE
*****
 33 36 0 0 0
SMALL
GASTEIGER

@<TRIPOS>ATOM
      1 C         143.9891  141.3795  159.8249 C.2     1  UNL1        0.2648
      2 O         144.1919  139.9241  160.1260 O.2     1  UNL1       -0.2684
      3 N         144.3147  141.9159  158.4625 N.am    1  UNL1       -0.2982
      4 H         144.1817  142.8711  158.2648 H       1  UNL1        0.1498
      5 C         143.6515  145.2388  163.4126 C.3     1  UNL1        0.0722
      6 C         143.3056  144.0724  162.5352 C.ar    1  UNL1        0.1245
      7 N         144.2147  143.4208  161.5358 N.ar    1  UNL1       -0.2264
      8 C         143.4608  142.2984  160.8861 C.ar    1  UNL1        0.1476
      9 C         142.0858  142.2565  161.4840 C.ar    1  UNL1        0.0648
     10 C         140.9977  141.2882  161.1257 C.3     1  UNL1        0.0522
     11 N         141.9898  143.3528  162.5032 N.ar    1  UNL1       -0.2972
     12 C         140.7890  143.6734  163.3430 C.ar    1  UNL1        0.0648
     13 C         139.5881  144.3199  162.7186 C.ar    1  UNL1        0.0175
     14 C         138.3872  144.6404  163.5584 C.ar    1  UNL1        0.0015
     15 C         138.3872  144.3145  165.0226 C.ar    1  UNL1        0.0001
     16 C         139.5882  143.6679  165.6470 C.ar    1  UNL1        0.0015
     17 C         140.7890  143.3474  164.8071 C.ar    1  UNL1        0.0175
     18 C         144.8431  140.9969  157.4011 C.3     1  UNL1        0.1070
     19 C         143.8990  140.3486  156.4324 C.3     1  UNL1        0.0937
     20 N         143.7191  138.8594  156.4429 N.3     1  UNL1       -0.2683
     21 C         144.4184  138.0123  155.4215 C.3     1  UNL1        0.0939
     22 C         144.2384  136.5232  155.4321 C.3     1  UNL1        0.1081
     23 N         143.3592  135.8812  156.4640 N.pl3   1  UNL1       -0.3040
     24 C         142.6600  136.7284  157.4855 C.3     1  UNL1        0.1081
     25 C         142.8400  138.2175  157.4749 C.3     1  UNL1        0.0939
     26 C         143.1793  134.3921  156.4746 C.ar    1  UNL1        0.0594
     27 C         144.1025  133.5308  157.2844 C.ar    1  UNL1        0.0154
     28 C         143.9226  132.0416  157.2949 C.ar    1  UNL1        0.0022
     29 C         142.8195  131.4138  156.4955 C.ar    1  UNL1        0.0123
     30 C         141.8962  132.2751  155.6857 C.ar    1  UNL1        0.0694
     31 CL        140.7931  131.6473  154.8863 Cl      1  UNL1       -0.0813
     32 C         142.0762  133.7642  155.6752 C.ar    1  UNL1        0.0815
     33 CL        141.1530  134.6256  154.8654 Cl      1  UNL1       -0.0801
@<TRIPOS>BOND
     1     5     6    1
     2     6     7   ar
     3     7     8   ar
     4     8     1    1
     5     1     2    2
     6     1     3   am
     7     3    18    1
     8    18    19    1
     9    19    20    1
    10    20    21    1
    11    21    22    1
    12    22    23    1
    13    23    26    1
    14    26    27   ar
    15    27    28   ar
    16    28    29   ar
    17    29    30   ar
    18    30    31    1
    19    30    32   ar
    20    32    33    1
    21    23    24    1
    22    24    25    1
    23     8     9   ar
    24     9    10    1
    25     9    11   ar
    26    11    12    1
    27    12    13   ar
    28    13    14   ar
    29    14    15   ar
    30    15    16   ar
    31    16    17   ar
    32    11     6   ar
    33    17    12   ar
    34    25    20    1
    35    32    26   ar
    36     3     4    1
@<TRIPOS>MOLECULE
*****
 33 36 0 0 0
SMALL
GASTEIGER

@<TRIPOS>ATOM
      1 C         135.0045  140.5784  155.9728 C.2     1  UNL1        0.2648
      2 O         135.7867  139.4120  155.4457 O.2     1  UNL1       -0.2684
      3 N         135.7160  141.8303  156.3927 N.am    1  UNL1       -0.2982
      4 H         135.2026  142.5958  156.7386 H       1  UNL1        0.1498
      5 C         129.8575  141.5403  155.2916 C.3     1  UNL1        0.0722
      6 C         131.1450  140.9349  155.7669 C.ar    1  UNL1        0.1245
      7 N         132.5240  141.3710  155.3694 N.ar    1  UNL1       -0.2264
      8 C         133.5108  140.4928  156.0800 C.ar    1  UNL1        0.1476
      9 C         132.7416  139.5139  156.9167 C.ar    1  UNL1        0.0648
     10 C         133.3310  138.4488  157.7931 C.3     1  UNL1        0.0522
     11 N         131.2795  139.7871  156.7232 N.ar    1  UNL1       -0.2972
     12 C         130.1501  139.0432  157.3721 C.ar    1  UNL1        0.0648
     13 C         129.5235  139.5763  158.6264 C.ar    1  UNL1        0.0175
     14 C         128.3940  138.8323  159.2753 C.ar    1  UNL1        0.0015
     15 C         127.8912  137.5553  158.6699 C.ar    1  UNL1        0.0001
     16 C         128.5179  137.0222  157.4155 C.ar    1  UNL1        0.0015
     17 C         129.6473  137.7662  156.7667 C.ar    1  UNL1        0.0175
     18 C         137.2097  141.9160  156.2854 C.3     1  UNL1        0.1070
     19 C         138.0081  142.5239  157.4003 C.3     1  UNL1        0.0937
     20 N         138.3127  141.7201  158.6297 N.3     1  UNL1       -0.2683
     21 C         137.6281  140.4044  158.8541 C.3     1  UNL1        0.0939
     22 C         137.9328  139.6007  160.0834 C.3     1  UNL1        0.1081
     23 N         138.9219  140.1125  161.0882 N.pl3   1  UNL1       -0.3040
     24 C         139.6064  141.4282  160.8637 C.3     1  UNL1        0.1081
     25 C         139.3018  142.2320  159.6344 C.3     1  UNL1        0.0939
     26 C         139.2265  139.3087  162.3175 C.ar    1  UNL1        0.0594
     27 C         140.2344  138.1995  162.2576 C.ar    1  UNL1        0.0154
     28 C         140.5390  137.3956  163.4869 C.ar    1  UNL1        0.0022
     29 C         139.8356  137.7011  164.7760 C.ar    1  UNL1        0.0123
     30 C         138.8277  138.8104  164.8359 C.ar    1  UNL1        0.0694
     31 CL        138.1243  139.1158  166.1251 Cl      1  UNL1       -0.0813
     32 C         138.5231  139.6142  163.6066 C.ar    1  UNL1        0.0815
     33 CL        137.5152  140.7235  163.6665 Cl      1  UNL1       -0.0801
@<TRIPOS>BOND
     1     5     6    1
     2     6     7   ar
     3     7     8   ar
     4     8     1    1
     5     1     2    2
     6     1     3   am
     7     3    18    1
     8    18    19    1
     9    19    20    1
    10    20    21    1
    11    21    22    1
    12    22    23    1
    13    23    26    1
    14    26    27   ar
    15    27    28   ar
    16    28    29   ar
    17    29    30   ar
    18    30    31    1
    19    30    32   ar
    20    32    33    1
    21    23    24    1
    22    24    25    1
    23     8     9   ar
    24     9    10    1
    25     9    11   ar
    26    11    12    1
    27    12    13   ar
    28    13    14   ar
    29    14    15   ar
    30    15    16   ar
    31    16    17   ar
    32    11     6   ar
    33    17    12   ar
    34    25    20    1
    35    32    26   ar
    36     3     4    1
@<TRIPOS>MOLECULE
*****
 33 36 0 0 0
SMALL
GASTEIGER

@<TRIPOS>ATOM
      1 C         143.6046  139.9346  160.6737 C.2     1  UNL1        0.2648
      2 O         144.5083  138.7443  160.5448 O.2     1  UNL1       -0.2684
      3 N         143.4407  140.8801  159.5209 N.am    1  UNL1       -0.2982
      4 H         142.8476  141.6614  159.6054 H       1  UNL1        0.1498
      5 C         139.7194  140.8018  164.1427 C.3     1  UNL1        0.0722
      6 C         141.0790  140.5780  163.5499 C.ar    1  UNL1        0.1245
      7 N         141.3824  140.3588  162.0974 N.ar    1  UNL1       -0.2264
      8 C         142.8649  140.1794  161.9554 C.ar    1  UNL1        0.1476
      9 C         143.4777  140.2879  163.3202 C.ar    1  UNL1        0.0648
     10 C         144.9379  140.1706  163.6429 C.3     1  UNL1        0.0522
     11 N         142.3741  140.5342  164.3057 N.ar    1  UNL1       -0.2972
     12 C         142.5368  140.7065  165.7868 C.ar    1  UNL1        0.0648
     13 C         142.8463  142.0598  166.3550 C.ar    1  UNL1        0.0175
     14 C         143.0090  142.2321  167.8361 C.ar    1  UNL1        0.0015
     15 C         142.8622  141.0511  168.7492 C.ar    1  UNL1        0.0001
     16 C         142.5527  139.6977  168.1811 C.ar    1  UNL1        0.0015
     17 C         142.3900  139.5255  166.6999 C.ar    1  UNL1        0.0175
     18 C         144.1805  140.6354  158.2391 C.3     1  UNL1        0.1070
     19 C         143.4736  140.0113  157.0725 C.3     1  UNL1        0.0937
     20 N         143.4175  138.5181  156.9409 N.3     1  UNL1       -0.2683
     21 C         144.0964  137.8409  155.7875 C.3     1  UNL1        0.0939
     22 C         144.0403  136.3477  155.6559 C.3     1  UNL1        0.1081
     23 N         143.3053  135.5319  156.6777 N.pl3   1  UNL1       -0.3040
     24 C         142.6263  136.2091  157.8311 C.3     1  UNL1        0.1081
     25 C         142.6824  137.7022  157.9627 C.3     1  UNL1        0.0939
     26 C         143.2492  134.0387  156.5461 C.ar    1  UNL1        0.0594
     27 C         144.2909  133.1876  157.2097 C.ar    1  UNL1        0.0154
     28 C         144.2348  131.6944  157.0781 C.ar    1  UNL1        0.0022
     29 C         143.1370  131.0523  156.2828 C.ar    1  UNL1        0.0123
     30 C         142.0952  131.9035  155.6191 C.ar    1  UNL1        0.0694
     31 CL        140.9974  131.2614  154.8238 Cl      1  UNL1       -0.0813
     32 C         142.1513  133.3966  155.7508 C.ar    1  UNL1        0.0815
     33 CL        141.1096  134.2477  155.0871 Cl      1  UNL1       -0.0801
@<TRIPOS>BOND
     1     5     6    1
     2     6     7   ar
     3     7     8   ar
     4     8     1    1
     5     1     2    2
     6     1     3   am
     7     3    18    1
     8    18    19    1
     9    19    20    1
    10    20    21    1
    11    21    22    1
    12    22    23    1
    13    23    26    1
    14    26    27   ar
    15    27    28   ar
    16    28    29   ar
    17    29    30   ar
    18    30    31    1
    19    30    32   ar
    20    32    33    1
    21    23    24    1
    22    24    25    1
    23     8     9   ar
    24     9    10    1
    25     9    11   ar
    26    11    12    1
    27    12    13   ar
    28    13    14   ar
    29    14    15   ar
    30    15    16   ar
    31    16    17   ar
    32    11     6   ar
    33    17    12   ar
    34    25    20    1
    35    32    26   ar
    36     3     4    1
@<TRIPOS>MOLECULE
*****
 33 36 0 0 0
SMALL
GASTEIGER

@<TRIPOS>ATOM
      1 C         134.9487  140.3519  155.9140 C.2     1  UNL1        0.2648
      2 O         135.6470  139.1800  155.2903 O.2     1  UNL1       -0.2684
      3 N         135.7453  141.5194  156.4161 N.am    1  UNL1       -0.2982
      4 H         135.2870  142.2885  156.8255 H       1  UNL1        0.1498
      5 C         129.8663  141.6573  155.3257 C.3     1  UNL1        0.0722
      6 C         131.1175  140.9563  155.7651 C.ar    1  UNL1        0.1245
      7 N         132.5175  141.3188  155.3668 N.ar    1  UNL1       -0.2264
      8 C         133.4536  140.3563  156.0355 C.ar    1  UNL1        0.1476
      9 C         132.6323  139.3989  156.8471 C.ar    1  UNL1        0.0648
     10 C         133.1617  138.2691  157.6797 C.3     1  UNL1        0.0522
     11 N         131.1885  139.7697  156.6800 N.ar    1  UNL1       -0.2972
     12 C         130.0206  139.0758  157.3162 C.ar    1  UNL1        0.0648
     13 C         129.5367  137.7662  156.7678 C.ar    1  UNL1        0.0175
     14 C         128.3689  137.0723  157.4039 C.ar    1  UNL1        0.0015
     15 C         127.6849  137.6880  158.5884 C.ar    1  UNL1        0.0001
     16 C         128.1688  138.9976  159.1369 C.ar    1  UNL1        0.0015
     17 C         129.3367  139.6915  158.5007 C.ar    1  UNL1        0.0175
     18 C         137.2405  141.5151  156.2946 C.3     1  UNL1        0.1070
     19 C         138.0708  140.7477  157.2803 C.3     1  UNL1        0.0937
     20 N         138.2877  141.2906  158.6617 N.3     1  UNL1       -0.2683
     21 C         137.9005  140.4731  159.8582 C.3     1  UNL1        0.0939
     22 C         138.1174  141.0161  161.2395 C.3     1  UNL1        0.1081
     23 N         138.7215  142.3766  161.4243 N.pl3   1  UNL1       -0.3040
     24 C         139.1088  143.1941  160.2278 C.3     1  UNL1        0.1081
     25 C         138.8919  142.6511  158.8465 C.3     1  UNL1        0.0939
     26 C         138.9384  142.9195  162.8057 C.ar    1  UNL1        0.0594
     27 C         137.9131  143.8212  163.4267 C.ar    1  UNL1        0.0154
     28 C         138.1300  144.3641  164.8082 C.ar    1  UNL1        0.0022
     29 C         139.3722  144.0054  165.5685 C.ar    1  UNL1        0.0123
     30 C         140.3976  143.1037  164.9474 C.ar    1  UNL1        0.0694
     31 CL        141.6399  142.7450  165.7077 Cl      1  UNL1       -0.0813
     32 C         140.1807  142.5608  163.5661 C.ar    1  UNL1        0.0815
     33 CL        141.2061  141.6592  162.9450 Cl      1  UNL1       -0.0801
@<TRIPOS>BOND
     1     5     6    1
     2     6     7   ar
     3     7     8   ar
     4     8     1    1
     5     1     2    2
     6     1     3   am
     7     3    18    1
     8    18    19    1
     9    19    20    1
    10    20    21    1
    11    21    22    1
    12    22    23    1
    13    23    26    1
    14    26    27   ar
    15    27    28   ar
    16    28    29   ar
    17    29    30   ar
    18    30    31    1
    19    30    32   ar
    20    32    33    1
    21    23    24    1
    22    24    25    1
    23     8     9   ar
    24     9    10    1
    25     9    11   ar
    26    11    12    1
    27    12    13   ar
    28    13    14   ar
    29    14    15   ar
    30    15    16   ar
    31    16    17   ar
    32    11     6   ar
    33    17    12   ar
    34    25    20    1
    35    32    26   ar
    36     3     4    1
@<TRIPOS>MOLECULE
*****
 33 36 0 0 0
SMALL
GASTEIGER

@<TRIPOS>ATOM
      1 C         143.1634  137.0432  156.4965 C.2     1  UNL1        0.2648
      2 O         144.2645  137.9770  156.0897 O.2     1  UNL1       -0.2684
      3 N         142.2767  137.3891  157.6558 N.am    1  UNL1       -0.2982
      4 H         141.5540  136.7763  157.9229 H       1  UNL1        0.1498
      5 C         141.9070  133.6054  152.6908 C.3     1  UNL1        0.0722
      6 C         142.3714  134.1832  153.9947 C.ar    1  UNL1        0.1245
      7 N         142.4224  135.6409  154.3449 N.ar    1  UNL1       -0.2264
      8 C         142.9489  135.7634  155.7441 C.ar    1  UNL1        0.1476
      9 C         143.2233  134.3815  156.2588 C.ar    1  UNL1        0.0648
     10 C         143.7603  134.0366  157.6162 C.3     1  UNL1        0.0522
     11 N         142.8664  133.4049  155.1777 N.ar    1  UNL1       -0.2972
     12 C         142.9839  131.9120  155.2642 C.ar    1  UNL1        0.0648
     13 C         141.7477  131.0628  155.2936 C.ar    1  UNL1        0.0175
     14 C         141.8651  129.5699  155.3802 C.ar    1  UNL1        0.0015
     15 C         143.2187  128.9261  155.4373 C.ar    1  UNL1        0.0001
     16 C         144.4550  129.7753  155.4078 C.ar    1  UNL1        0.0015
     17 C         144.3375  131.2682  155.3213 C.ar    1  UNL1        0.0175
     18 C         142.4911  138.6690  158.4083 C.3     1  UNL1        0.1070
     19 C         143.2995  138.6697  159.6718 C.3     1  UNL1        0.0937
     20 N         142.6232  138.8756  160.9949 N.3     1  UNL1       -0.2683
     21 C         141.4331  139.7830  161.0956 C.3     1  UNL1        0.0939
     22 C         140.7568  139.9889  162.4186 C.3     1  UNL1        0.1081
     23 N         141.2706  139.2873  163.6408 N.pl3   1  UNL1       -0.3040
     24 C         142.4607  138.3798  163.5400 C.3     1  UNL1        0.1081
     25 C         143.1370  138.1740  162.2170 C.3     1  UNL1        0.0939
     26 C         140.5943  139.4932  164.9638 C.ar    1  UNL1        0.0594
     27 C         141.1384  140.4975  165.9360 C.ar    1  UNL1        0.0154
     28 C         140.4621  140.7034  167.2590 C.ar    1  UNL1        0.0022
     29 C         139.2417  139.9050  167.6097 C.ar    1  UNL1        0.0123
     30 C         138.6976  138.9006  166.6374 C.ar    1  UNL1        0.0694
     31 CL        137.4772  138.1021  166.9881 Cl      1  UNL1       -0.0813
     32 C         139.3739  138.6947  165.3145 C.ar    1  UNL1        0.0815
     33 CL        138.8298  137.6903  164.3422 Cl      1  UNL1       -0.0801
@<TRIPOS>BOND
     1     5     6    1
     2     6     7   ar
     3     7     8   ar
     4     8     1    1
     5     1     2    2
     6     1     3   am
     7     3    18    1
     8    18    19    1
     9    19    20    1
    10    20    21    1
    11    21    22    1
    12    22    23    1
    13    23    26    1
    14    26    27   ar
    15    27    28   ar
    16    28    29   ar
    17    29    30   ar
    18    30    31    1
    19    30    32   ar
    20    32    33    1
    21    23    24    1
    22    24    25    1
    23     8     9   ar
    24     9    10    1
    25     9    11   ar
    26    11    12    1
    27    12    13   ar
    28    13    14   ar
    29    14    15   ar
    30    15    16   ar
    31    16    17   ar
    32    11     6   ar
    33    17    12   ar
    34    25    20    1
    35    32    26   ar
    36     3     4    1
@<TRIPOS>MOLECULE
*****
 33 36 0 0 0
SMALL
GASTEIGER

@<TRIPOS>ATOM
      1 C         143.0038  140.0703  160.1260 C.2     1  UNL1        0.2648
      2 O         144.1176  139.1544  160.5390 O.2     1  UNL1       -0.2684
      3 N         143.0340  140.7274  158.7779 N.am    1  UNL1       -0.2982
      4 H         142.3029  141.3285  158.5068 H       1  UNL1        0.1498
      5 C         138.7038  139.3812  163.1119 C.3     1  UNL1        0.0722
      6 C         139.8833  140.0124  162.4335 C.ar    1  UNL1        0.1245
      7 N         140.8378  139.3243  161.5032 N.ar    1  UNL1       -0.2264
      8 C         141.8598  140.3292  161.0610 C.ar    1  UNL1        0.1476
      9 C         141.5371  141.6384  161.7180 C.ar    1  UNL1        0.0648
     10 C         142.3016  142.9187  161.5554 C.3     1  UNL1        0.0522
     11 N         140.3156  141.4427  162.5663 N.ar    1  UNL1       -0.2972
     12 C         139.6441  142.4928  163.4008 C.ar    1  UNL1        0.0648
     13 C         140.1630  142.8055  164.7730 C.ar    1  UNL1        0.0175
     14 C         139.4916  143.8556  165.6075 C.ar    1  UNL1        0.0015
     15 C         138.3012  144.5931  165.0698 C.ar    1  UNL1        0.0001
     16 C         137.7823  144.2805  163.6976 C.ar    1  UNL1        0.0015
     17 C         138.4538  143.2303  162.8631 C.ar    1  UNL1        0.0175
     18 C         144.1779  140.4685  157.8428 C.3     1  UNL1        0.1070
     19 C         143.9188  139.8933  156.4819 C.3     1  UNL1        0.0937
     20 N         143.5836  138.4387  156.3339 N.3     1  UNL1       -0.2683
     21 C         142.3771  137.8732  157.0227 C.3     1  UNL1        0.0939
     22 C         142.0419  136.4187  156.8746 C.3     1  UNL1        0.1081
     23 N         142.9131  135.5297  156.0377 N.pl3   1  UNL1       -0.3040
     24 C         144.1196  136.0952  155.3488 C.3     1  UNL1        0.1081
     25 C         144.4548  137.5497  155.4969 C.3     1  UNL1        0.0939
     26 C         142.5779  134.0751  155.8896 C.ar    1  UNL1        0.0594
     27 C         141.5930  133.6348  154.8475 C.ar    1  UNL1        0.0154
     28 C         141.2577  132.1802  154.6994 C.ar    1  UNL1        0.0022
     29 C         141.9074  131.1660  155.5935 C.ar    1  UNL1        0.0123
     30 C         142.8923  131.6064  156.6357 C.ar    1  UNL1        0.0694
     31 CL        143.5419  130.5923  157.5298 Cl      1  UNL1       -0.0813
     32 C         143.2275  133.0609  156.7837 C.ar    1  UNL1        0.0815
     33 CL        144.2124  133.5014  157.8259 Cl      1  UNL1       -0.0801
@<TRIPOS>BOND
     1     5     6    1
     2     6     7   ar
     3     7     8   ar
     4     8     1    1
     5     1     2    2
     6     1     3   am
     7     3    18    1
     8    18    19    1
     9    19    20    1
    10    20    21    1
    11    21    22    1
    12    22    23    1
    13    23    26    1
    14    26    27   ar
    15    27    28   ar
    16    28    29   ar
    17    29    30   ar
    18    30    31    1
    19    30    32   ar
    20    32    33    1
    21    23    24    1
    22    24    25    1
    23     8     9   ar
    24     9    10    1
    25     9    11   ar
    26    11    12    1
    27    12    13   ar
    28    13    14   ar
    29    14    15   ar
    30    15    16   ar
    31    16    17   ar
    32    11     6   ar
    33    17    12   ar
    34    25    20    1
    35    32    26   ar
    36     3     4    1
@<TRIPOS>MOLECULE
*****
 33 36 0 0 0
SMALL
GASTEIGER

@<TRIPOS>ATOM
      1 C         143.2119  135.9924  156.1257 C.2     1  UNL1        0.2648
      2 O         144.4215  136.8439  155.8770 O.2     1  UNL1       -0.2684
      3 N         142.0904  136.5125  156.9751 N.am    1  UNL1       -0.2982
      4 H         141.2965  135.9536  157.1384 H       1  UNL1        0.1498
      5 C         142.2631  132.0349  152.7614 C.3     1  UNL1        0.0722
      6 C         142.6877  132.8017  153.9786 C.ar    1  UNL1        0.1245
      7 N         142.5856  134.2865  154.1654 N.ar    1  UNL1       -0.2264
      8 C         143.1239  134.6207  155.5251 C.ar    1  UNL1        0.1476
      9 C         143.5587  133.3425  156.1786 C.ar    1  UNL1        0.0648
     10 C         144.1578  133.2115  157.5475 C.3     1  UNL1        0.0522
     11 N         143.2891  132.2183  155.2229 N.ar    1  UNL1       -0.2972
     12 C         143.5714  130.7656  155.4683 C.ar    1  UNL1        0.0648
     13 C         142.5790  129.9244  156.2149 C.ar    1  UNL1        0.0175
     14 C         142.8613  128.4718  156.4603 C.ar    1  UNL1        0.0015
     15 C         144.1359  127.8603  155.9590 C.ar    1  UNL1        0.0001
     16 C         145.1284  128.7015  155.2123 C.ar    1  UNL1        0.0015
     17 C         144.8461  130.1542  154.9670 C.ar    1  UNL1        0.0175
     18 C         142.1783  137.8842  157.5758 C.3     1  UNL1        0.1070
     19 C         142.9565  138.1010  158.8397 C.3     1  UNL1        0.0937
     20 N         142.2359  138.2711  160.1443 N.3     1  UNL1       -0.2683
     21 C         140.8202  138.7666  160.1601 C.3     1  UNL1        0.0939
     22 C         140.0997  138.9367  161.4646 C.3     1  UNL1        0.1081
     23 N         140.7948  138.6113  162.7534 N.pl3   1  UNL1       -0.3040
     24 C         142.2105  138.1159  162.7376 C.3     1  UNL1        0.1081
     25 C         142.9310  137.9457  161.4331 C.3     1  UNL1        0.0939
     26 C         140.0742  138.7815  164.0580 C.ar    1  UNL1        0.0594
     27 C         139.0697  137.7585  164.4989 C.ar    1  UNL1        0.0154
     28 C         138.3491  137.9286  165.8035 C.ar    1  UNL1        0.0022
     29 C         138.6331  139.1218  166.6671 C.ar    1  UNL1        0.0123
     30 C         139.6376  140.1448  166.2260 C.ar    1  UNL1        0.0694
     31 CL        139.9215  141.3380  167.0896 Cl      1  UNL1       -0.0813
     32 C         140.3581  139.9747  164.9215 C.ar    1  UNL1        0.0815
     33 CL        141.3627  140.9977  164.4805 Cl      1  UNL1       -0.0801
@<TRIPOS>BOND
     1     5     6    1
     2     6     7   ar
     3     7     8   ar
     4     8     1    1
     5     1     2    2
     6     1     3   am
     7     3    18    1
     8    18    19    1
     9    19    20    1
    10    20    21    1
    11    21    22    1
    12    22    23    1
    13    23    26    1
    14    26    27   ar
    15    27    28   ar
    16    28    29   ar
    17    29    30   ar
    18    30    31    1
    19    30    32   ar
    20    32    33    1
    21    23    24    1
    22    24    25    1
    23     8     9   ar
    24     9    10    1
    25     9    11   ar
    26    11    12    1
    27    12    13   ar
    28    13    14   ar
    29    14    15   ar
    30    15    16   ar
    31    16    17   ar
    32    11     6   ar
    33    17    12   ar
    34    25    20    1
    35    32    26   ar
    36     3     4    1
@<TRIPOS>MOLECULE
*****
 33 36 0 0 0
SMALL
GASTEIGER

@<TRIPOS>ATOM
      1 C         134.3717  140.9258  155.3037 C.2     1  UNL1        0.2648
      2 O         134.8216  140.9260  153.8728 O.2     1  UNL1       -0.2684
      3 N         135.3738  141.1063  156.4050 N.am    1  UNL1       -0.2982
      4 H         135.0785  141.1061  157.3442 H       1  UNL1        0.1498
      5 C         129.1451  141.6435  155.5242 C.3     1  UNL1        0.0722
      6 C         130.5171  141.0750  155.7346 C.ar    1  UNL1        0.1245
      7 N         131.7945  141.6226  155.1703 N.ar    1  UNL1       -0.2264
      8 C         132.9196  140.7451  155.6332 C.ar    1  UNL1        0.1476
      9 C         132.3375  139.6551  156.4836 C.ar    1  UNL1        0.0648
     10 C         133.1053  138.5544  157.1537 C.3     1  UNL1        0.0522
     11 N         130.8527  139.8589  156.5462 N.ar    1  UNL1       -0.2972
     12 C         129.8752  138.9979  157.2900 C.ar    1  UNL1        0.0648
     13 C         129.3351  137.7528  156.6513 C.ar    1  UNL1        0.0175
     14 C         128.3576  136.8918  157.3950 C.ar    1  UNL1        0.0015
     15 C         127.9200  137.2760  158.7774 C.ar    1  UNL1        0.0001
     16 C         128.4601  138.5212  159.4161 C.ar    1  UNL1        0.0015
     17 C         129.4376  139.3821  158.6723 C.ar    1  UNL1        0.0175
     18 C         136.8260  141.2870  156.0755 C.3     1  UNL1        0.1070
     19 C         137.8746  140.6243  156.9189 C.3     1  UNL1        0.0937
     20 N         138.4413  141.3390  158.1098 N.3     1  UNL1       -0.2683
     21 C         138.8333  142.7828  158.0014 C.3     1  UNL1        0.0939
     22 C         139.4000  143.4975  159.1923 C.3     1  UNL1        0.1081
     23 N         139.5748  142.7683  160.4914 N.pl3   1  UNL1       -0.3040
     24 C         139.1828  141.3245  160.5997 C.3     1  UNL1        0.1081
     25 C         138.6161  140.6099  159.4089 C.3     1  UNL1        0.0939
     26 C         140.1415  143.4830  161.6823 C.ar    1  UNL1        0.0594
     27 C         141.6081  143.7913  161.7439 C.ar    1  UNL1        0.0154
     28 C         142.1749  144.5060  162.9348 C.ar    1  UNL1        0.0022
     29 C         141.2749  144.9124  164.0639 C.ar    1  UNL1        0.0123
     30 C         139.8082  144.6040  164.0022 C.ar    1  UNL1        0.0694
     31 CL        138.9082  145.0103  165.1314 Cl      1  UNL1       -0.0813
     32 C         139.2415  143.8893  162.8114 C.ar    1  UNL1        0.0815
     33 CL        137.7748  143.5809  162.7497 Cl      1  UNL1       -0.0801
@<TRIPOS>BOND
     1     5     6    1
     2     6     7   ar
     3     7     8   ar
     4     8     1    1
     5     1     2    2
     6     1     3   am
     7     3    18    1
     8    18    19    1
     9    19    20    1
    10    20    21    1
    11    21    22    1
    12    22    23    1
    13    23    26    1
    14    26    27   ar
    15    27    28   ar
    16    28    29   ar
    17    29    30   ar
    18    30    31    1
    19    30    32   ar
    20    32    33    1
    21    23    24    1
    22    24    25    1
    23     8     9   ar
    24     9    10    1
    25     9    11   ar
    26    11    12    1
    27    12    13   ar
    28    13    14   ar
    29    14    15   ar
    30    15    16   ar
    31    16    17   ar
    32    11     6   ar
    33    17    12   ar
    34    25    20    1
    35    32    26   ar
    36     3     4    1
@<TRIPOS>MOLECULE
*****
 33 36 0 0 0
SMALL
GASTEIGER

@<TRIPOS>ATOM
      1 C         138.8406  142.4402  163.1272 C.2     1  UNL1        0.2648
      2 O         137.6908  143.3943  162.9951 O.2     1  UNL1       -0.2684
      3 N         139.9148  142.4107  162.0807 N.am    1  UNL1       -0.2982
      4 H         140.6695  141.7845  162.1674 H       1  UNL1        0.1498
      5 C         137.9063  138.4287  166.4311 C.3     1  UNL1        0.0722
      6 C         138.4869  139.6716  165.8245 C.ar    1  UNL1        0.1245
      7 N         138.0774  140.2909  164.5211 N.ar    1  UNL1       -0.2264
      8 C         138.9164  141.5156  164.3059 C.ar    1  UNL1        0.1476
      9 C         139.8444  141.6532  165.4762 C.ar    1  UNL1        0.0648
     10 C         140.8596  142.7397  165.6735 C.3     1  UNL1        0.0522
     11 N         139.5790  140.5137  166.4148 N.ar    1  UNL1       -0.2972
     12 C         140.2821  140.2605  167.7154 C.ar    1  UNL1        0.0648
     13 C         141.6990  139.7681  167.7185 C.ar    1  UNL1        0.0175
     14 C         142.4022  139.5149  169.0191 C.ar    1  UNL1        0.0015
     15 C         141.6885  139.7542  170.3165 C.ar    1  UNL1        0.0001
     16 C         140.2716  140.2467  170.3135 C.ar    1  UNL1        0.0015
     17 C         139.5685  140.4998  169.0129 C.ar    1  UNL1        0.0175
     18 C         139.8391  143.3354  160.9019 C.3     1  UNL1        0.1070
     19 C         139.1003  142.9158  159.6658 C.3     1  UNL1        0.0937
     20 N         139.4988  141.6635  158.9426 N.3     1  UNL1       -0.2683
     21 C         140.5006  141.7275  157.8281 C.3     1  UNL1        0.0939
     22 C         140.8990  140.4752  157.1049 C.3     1  UNL1        0.1081
     23 N         140.2956  139.1589  157.4964 N.pl3   1  UNL1       -0.3040
     24 C         139.2938  139.0948  158.6109 C.3     1  UNL1        0.1081
     25 C         138.8954  140.3471  159.3340 C.3     1  UNL1        0.0939
     26 C         140.6941  137.9065  156.7732 C.ar    1  UNL1        0.0594
     27 C         139.8627  137.4035  155.6306 C.ar    1  UNL1        0.0154
     28 C         140.2611  136.1511  154.9074 C.ar    1  UNL1        0.0022
     29 C         141.4911  135.4019  155.3269 C.ar    1  UNL1        0.0123
     30 C         142.3225  135.9050  156.4696 C.ar    1  UNL1        0.0694
     31 CL        143.5524  135.1558  156.8891 Cl      1  UNL1       -0.0813
     32 C         141.9240  137.1573  157.1927 C.ar    1  UNL1        0.0815
     33 CL        142.7554  137.6604  158.3354 Cl      1  UNL1       -0.0801
@<TRIPOS>BOND
     1     5     6    1
     2     6     7   ar
     3     7     8   ar
     4     8     1    1
     5     1     2    2
     6     1     3   am
     7     3    18    1
     8    18    19    1
     9    19    20    1
    10    20    21    1
    11    21    22    1
    12    22    23    1
    13    23    26    1
    14    26    27   ar
    15    27    28   ar
    16    28    29   ar
    17    29    30   ar
    18    30    31    1
    19    30    32   ar
    20    32    33    1
    21    23    24    1
    22    24    25    1
    23     8     9   ar
    24     9    10    1
    25     9    11   ar
    26    11    12    1
    27    12    13   ar
    28    13    14   ar
    29    14    15   ar
    30    15    16   ar
    31    16    17   ar
    32    11     6   ar
    33    17    12   ar
    34    25    20    1
    35    32    26   ar
    36     3     4    1
