@<TRIPOS>MOLECULE
*****
 38 41 0 0 0
SMALL
GASTEIGER

@<TRIPOS>ATOM
      1 O         142.3185  140.1442  159.1265 O.2     1  UNL1       -0.2733
      2 C         142.7110  138.7507  158.7340 C.2     1  UNL1        0.2426
      3 N         142.9758  137.7202  159.7913 N.am    1  UNL1       -0.3018
      4 H         143.2335  136.8056  159.5337 H       1  UNL1        0.1495
      5 C         142.8480  138.0832  161.2412 C.3     1  UNL1        0.1035
      6 C         141.8173  137.8507  162.3059 C.3     1  UNL1        0.0933
      7 N         142.6672  138.5965  163.2915 N.3     1  UNL1       -0.2711
      8 C         143.6979  138.8290  162.2268 C.3     1  UNL1        0.0933
      9 C         142.5394  138.9594  164.7413 C.3     1  UNL1        0.0578
     10 C         143.3999  138.2781  165.7637 C.3     1  UNL1        0.0187
     11 C         143.2721  138.6411  167.2135 C.3     1  UNL1        0.0325
     12 C         142.2837  139.6853  167.6409 C.3     1  UNL1        0.1070
     13 O         142.8719  139.3230  168.9723 O.3     1  UNL1       -0.3827
     14 C         141.4232  140.3666  166.6185 C.3     1  UNL1        0.0325
     15 C         141.5510  140.0037  165.1687 C.3     1  UNL1        0.0187
     16 H         143.5474  138.6374  168.8515 H       1  UNL1        0.2107
     17 C         141.4996  140.6037  168.5307 C.ar    1  UNL1        0.0019
     18 C         142.0563  141.9470  168.8991 C.ar    1  UNL1        0.0003
     19 C         141.2722  142.8654  169.7889 C.ar    1  UNL1        0.0294
     20 C         139.9314  142.4405  170.3102 C.ar    1  UNL1        0.1401
     21 F         139.1473  143.3590  171.1999 F       1  UNL1       -0.2042
     22 C         139.3747  141.0974  169.9418 C.ar    1  UNL1        0.0294
     23 C         140.1587  140.1788  169.0520 C.ar    1  UNL1        0.0003
     24 C         142.8388  138.3877  157.2843 C.3     1  UNL1        0.1759
     25 N         142.6208  136.9704  156.8439 N.am    1  UNL1       -0.2931
     26 C         143.6291  136.2956  155.9619 C.2     1  UNL1        0.2462
     27 O         144.8554  137.0379  155.5203 O.2     1  UNL1       -0.2701
     28 H         141.8159  136.4832  157.1338 H       1  UNL1        0.1502
     29 C         143.4110  134.8783  155.5216 C.ar    1  UNL1        0.0533
     30 C         142.6202  134.5921  154.2796 C.ar    1  UNL1        0.0045
     31 C         142.4022  133.1748  153.8393 C.ar    1  UNL1        0.0001
     32 C         142.9750  132.0438  154.6410 C.ar    1  UNL1        0.0039
     33 C         143.7658  132.3301  155.8830 C.ar    1  UNL1        0.0716
     34 C         143.9838  133.7473  156.3233 C.ar    1  UNL1        0.0084
     35 C         144.3386  131.1991  156.6847 C.3     1  UNL1        0.4186
     36 F         144.9114  130.0681  157.4865 F       1  UNL1       -0.1659
     37 F         142.9689  130.6032  156.8226 F       1  UNL1       -0.1659
     38 F         145.7082  131.7949  156.5468 F       1  UNL1       -0.1659
@<TRIPOS>BOND
     1     1     2    2
     2     2    24    1
     3    24    25    1
     4    25    26   am
     5    26    27    2
     6    26    29    1
     7    29    30   ar
     8    30    31   ar
     9    31    32   ar
    10    32    33   ar
    11    33    35    1
    12    35    36    1
    13    35    37    1
    14    35    38    1
    15    33    34   ar
    16     2     3   am
    17     3     5    1
    18     5     6    1
    19     6     7    1
    20     9     7    1
    21     9    10    1
    22    10    11    1
    23    11    12    1
    24    12    13    1
    25    12    17    1
    26    17    18   ar
    27    18    19   ar
    28    19    20   ar
    29    20    21    1
    30    20    22   ar
    31    22    23   ar
    32    12    14    1
    33    14    15    1
    34     7     8    1
    35    34    29   ar
    36     8     5    1
    37    15     9    1
    38    23    17   ar
    39    25    28    1
    40     3     4    1
    41    13    16    1
@<TRIPOS>MOLECULE
*****
 38 41 0 0 0
SMALL
GASTEIGER

@<TRIPOS>ATOM
      1 O         142.4287  140.0894  159.1447 O.2     1  UNL1       -0.2733
      2 C         142.7086  138.6643  158.7695 C.2     1  UNL1        0.2426
      3 N         142.8751  137.6260  159.8392 N.am    1  UNL1       -0.3018
      4 H         143.0588  136.6906  159.5929 H       1  UNL1        0.1495
      5 C         142.7617  138.0128  161.2840 C.3     1  UNL1        0.1035
      6 C         141.7310  137.8182  162.3564 C.3     1  UNL1        0.0933
      7 N         142.6012  138.5597  163.3274 N.3     1  UNL1       -0.2711
      8 C         143.6319  138.7543  162.2550 C.3     1  UNL1        0.0933
      9 C         142.4878  138.9465  164.7722 C.3     1  UNL1        0.0578
     10 C         143.3674  138.2911  165.7953 C.3     1  UNL1        0.0187
     11 C         143.2539  138.6779  167.2402 C.3     1  UNL1        0.0325
     12 C         142.2609  139.7200  167.6618 C.3     1  UNL1        0.1070
     13 O         142.8689  139.3863  168.9918 O.3     1  UNL1       -0.3827
     14 C         141.3813  140.3754  166.6387 C.3     1  UNL1        0.0325
     15 C         141.4947  139.9887  165.1939 C.3     1  UNL1        0.0187
     16 H         143.5493  138.7051  168.8745 H       1  UNL1        0.2107
     17 C         141.4790  140.6463  168.5454 C.ar    1  UNL1        0.0019
     18 C         140.1875  140.1884  169.1558 C.ar    1  UNL1        0.0003
     19 C         139.4057  141.1147  170.0394 C.ar    1  UNL1        0.0294
     20 C         139.9153  142.4988  170.3125 C.ar    1  UNL1        0.1401
     21 F         139.1333  143.4250  171.1961 F       1  UNL1       -0.2042
     22 C         141.2066  142.9567  169.7022 C.ar    1  UNL1        0.0294
     23 C         141.9886  142.0304  168.8186 C.ar    1  UNL1        0.0003
     24 C         142.8220  138.2774  157.3247 C.3     1  UNL1        0.1759
     25 N         143.2892  136.9019  156.9510 N.am    1  UNL1       -0.2931
     26 C         142.3268  135.9201  156.3512 C.2     1  UNL1        0.2462
     27 O         140.8972  136.3138  156.1251 O.2     1  UNL1       -0.2701
     28 H         144.2275  136.6434  157.0994 H       1  UNL1        0.1502
     29 C         142.7940  134.5445  155.9775 C.ar    1  UNL1        0.0533
     30 C         142.4928  133.9946  154.6148 C.ar    1  UNL1        0.0045
     31 C         142.9600  132.6191  154.2412 C.ar    1  UNL1        0.0001
     32 C         143.7284  131.7935  155.2302 C.ar    1  UNL1        0.0039
     33 C         144.0295  132.3434  156.5928 C.ar    1  UNL1        0.0716
     34 C         143.5623  133.7189  156.9665 C.ar    1  UNL1        0.0084
     35 C         144.7979  131.5179  157.5818 C.3     1  UNL1        0.4186
     36 F         145.5662  130.6923  158.5708 F       1  UNL1       -0.1659
     37 F         145.2163  132.7669  158.2993 F       1  UNL1       -0.1659
     38 F         144.3795  130.2689  156.8642 F       1  UNL1       -0.1659
@<TRIPOS>BOND
     1     1     2    2
     2     2    24    1
     3    24    25    1
     4    25    26   am
     5    26    27    2
     6    26    29    1
     7    29    30   ar
     8    30    31   ar
     9    31    32   ar
    10    32    33   ar
    11    33    35    1
    12    35    36    1
    13    35    37    1
    14    35    38    1
    15    33    34   ar
    16     2     3   am
    17     3     5    1
    18     5     6    1
    19     6     7    1
    20     9     7    1
    21     9    10    1
    22    10    11    1
    23    11    12    1
    24    12    13    1
    25    12    17    1
    26    17    18   ar
    27    18    19   ar
    28    19    20   ar
    29    20    21    1
    30    20    22   ar
    31    22    23   ar
    32    12    14    1
    33    14    15    1
    34     7     8    1
    35    34    29   ar
    36     8     5    1
    37    15     9    1
    38    23    17   ar
    39    25    28    1
    40     3     4    1
    41    13    16    1
@<TRIPOS>MOLECULE
*****
 38 41 0 0 0
SMALL
GASTEIGER

@<TRIPOS>ATOM
      1 O         141.3942  139.3729  159.2325 O.2     1  UNL1       -0.2733
      2 C         140.1726  138.6247  158.7876 C.2     1  UNL1        0.2426
      3 N         139.1139  138.2569  159.7845 N.am    1  UNL1       -0.3018
      4 H         138.3122  137.7658  159.4925 H       1  UNL1        0.1495
      5 C         139.2768  138.6372  161.2263 C.3     1  UNL1        0.1035
      6 C         138.6996  139.6989  162.1149 C.3     1  UNL1        0.0933
      7 N         139.5071  139.1751  163.2654 N.3     1  UNL1       -0.2711
      8 C         140.0844  138.1134  162.3768 C.3     1  UNL1        0.0933
      9 C         139.6700  139.5555  164.7071 C.3     1  UNL1        0.0578
     10 C         138.7510  138.9794  165.7432 C.3     1  UNL1        0.0187
     11 C         138.9139  139.3598  167.1851 C.3     1  UNL1        0.0325
     12 C         139.9957  140.3163  167.5908 C.3     1  UNL1        0.1070
     13 O         139.3780  140.0389  168.9291 O.3     1  UNL1       -0.3827
     14 C         140.9147  140.8924  166.5547 C.3     1  UNL1        0.0325
     15 C         140.7519  140.5121  165.1129 C.3     1  UNL1        0.0187
     16 H         138.6414  139.4167  168.8226 H       1  UNL1        0.2107
     17 C         140.8631  141.1765  168.4613 C.ar    1  UNL1        0.0019
     18 C         142.2643  140.7474  168.7814 C.ar    1  UNL1        0.0003
     19 C         143.1317  141.6076  169.6519 C.ar    1  UNL1        0.0294
     20 C         142.5977  142.8969  170.2023 C.ar    1  UNL1        0.1401
     21 F         143.4651  143.7570  171.0728 F       1  UNL1       -0.2042
     22 C         141.1966  143.3259  169.8822 C.ar    1  UNL1        0.0294
     23 C         140.3291  142.4657  169.0117 C.ar    1  UNL1        0.0003
     24 C         140.0097  138.2443  157.3458 C.3     1  UNL1        0.1759
     25 N         140.5053  136.9143  156.8604 N.am    1  UNL1       -0.2931
     26 C         141.9679  136.7090  156.5987 C.2     1  UNL1        0.2462
     27 O         142.9350  137.8335  156.8225 O.2     1  UNL1       -0.2701
     28 H         139.8706  136.1763  156.7135 H       1  UNL1        0.1502
     29 C         142.4635  135.3790  156.1133 C.ar    1  UNL1        0.0533
     30 C         141.9988  134.8422  154.7920 C.ar    1  UNL1        0.0045
     31 C         142.4944  133.5123  154.3066 C.ar    1  UNL1        0.0001
     32 C         143.4547  132.7192  155.1425 C.ar    1  UNL1        0.0039
     33 C         143.9194  133.2559  156.4638 C.ar    1  UNL1        0.0716
     34 C         143.4238  134.5859  156.9492 C.ar    1  UNL1        0.0084
     35 C         144.8798  132.4628  157.2997 C.3     1  UNL1        0.4186
     36 F         145.8401  131.6697  158.1355 F       1  UNL1       -0.1659
     37 F         145.2353  131.6317  156.1026 F       1  UNL1       -0.1659
     38 F         144.5243  133.2939  158.4967 F       1  UNL1       -0.1659
@<TRIPOS>BOND
     1     1     2    2
     2     2    24    1
     3    24    25    1
     4    25    26   am
     5    26    27    2
     6    26    29    1
     7    29    30   ar
     8    30    31   ar
     9    31    32   ar
    10    32    33   ar
    11    33    35    1
    12    35    36    1
    13    35    37    1
    14    35    38    1
    15    33    34   ar
    16     2     3   am
    17     3     5    1
    18     5     6    1
    19     6     7    1
    20     9     7    1
    21     9    10    1
    22    10    11    1
    23    11    12    1
    24    12    13    1
    25    12    17    1
    26    17    18   ar
    27    18    19   ar
    28    19    20   ar
    29    20    21    1
    30    20    22   ar
    31    22    23   ar
    32    12    14    1
    33    14    15    1
    34     7     8    1
    35    34    29   ar
    36     8     5    1
    37    15     9    1
    38    23    17   ar
    39    25    28    1
    40     3     4    1
    41    13    16    1
@<TRIPOS>MOLECULE
*****
 38 41 0 0 0
SMALL
GASTEIGER

@<TRIPOS>ATOM
      1 O         138.1525  142.4377  158.1881 O.2     1  UNL1       -0.2733
      2 C         137.7962  141.1699  157.4700 C.2     1  UNL1        0.2426
      3 N         138.2676  139.8489  158.0017 N.am    1  UNL1       -0.3018
      4 H         138.0337  139.0168  157.5303 H       1  UNL1        0.1495
      5 C         139.0954  139.7957  159.2515 C.3     1  UNL1        0.1035
      6 C         138.9244  139.1872  160.6118 C.3     1  UNL1        0.0933
      7 N         140.2660  139.7203  161.0190 N.3     1  UNL1       -0.2711
      8 C         140.4370  140.3288  159.6586 C.3     1  UNL1        0.0933
      9 C         141.0937  139.6671  162.2687 C.3     1  UNL1        0.0578
     10 C         142.2925  138.7680  162.3366 C.3     1  UNL1        0.0187
     11 C         143.1203  138.7148  163.5865 C.3     1  UNL1        0.0325
     12 C         142.7492  139.5606  164.7684 C.3     1  UNL1        0.1070
     13 O         143.9659  138.8722  165.3123 O.3     1  UNL1       -0.3827
     14 C         141.5505  140.4597  164.7005 C.3     1  UNL1        0.0325
     15 C         140.7227  140.5129  163.4507 C.3     1  UNL1        0.0187
     16 H         144.3270  138.2742  164.6394 H       1  UNL1        0.2107
     17 C         142.8007  140.1674  166.1392 C.ar    1  UNL1        0.0019
     18 C         142.6166  139.3014  167.3501 C.ar    1  UNL1        0.0003
     19 C         142.6681  139.9081  168.7209 C.ar    1  UNL1        0.0294
     20 C         142.9037  141.3809  168.8808 C.ar    1  UNL1        0.1401
     21 F         142.9552  141.9876  170.2517 F       1  UNL1       -0.2042
     22 C         143.0878  142.2468  167.6700 C.ar    1  UNL1        0.0294
     23 C         143.0363  141.6401  166.2991 C.ar    1  UNL1        0.0003
     24 C         136.9684  141.2231  156.2203 C.3     1  UNL1        0.1759
     25 N         135.4745  141.3221  156.3137 N.am    1  UNL1       -0.2931
     26 C         134.6170  140.1807  155.8535 C.2     1  UNL1        0.2462
     27 O         135.2532  138.9403  155.2998 O.2     1  UNL1       -0.2701
     28 H         135.0569  142.1362  156.6771 H       1  UNL1        0.1502
     29 C         133.1231  140.2797  155.9470 C.ar    1  UNL1        0.0533
     30 C         132.4044  141.4198  155.2886 C.ar    1  UNL1        0.0045
     31 C         130.9106  141.5188  155.3821 C.ar    1  UNL1        0.0001
     32 C         130.1356  140.4776  156.1340 C.ar    1  UNL1        0.0039
     33 C         130.8543  139.3375  156.7923 C.ar    1  UNL1        0.0716
     34 C         132.3481  139.2386  156.6988 C.ar    1  UNL1        0.0084
     35 C         130.0793  138.2964  157.5442 C.3     1  UNL1        0.4186
     36 F         129.3042  137.2552  158.2960 F       1  UNL1       -0.1659
     37 F         129.9018  139.2529  158.6859 F       1  UNL1       -0.1659
     38 F         130.2568  137.3398  156.4025 F       1  UNL1       -0.1659
@<TRIPOS>BOND
     1     1     2    2
     2     2    24    1
     3    24    25    1
     4    25    26   am
     5    26    27    2
     6    26    29    1
     7    29    30   ar
     8    30    31   ar
     9    31    32   ar
    10    32    33   ar
    11    33    35    1
    12    35    36    1
    13    35    37    1
    14    35    38    1
    15    33    34   ar
    16     2     3   am
    17     3     5    1
    18     5     6    1
    19     6     7    1
    20     9     7    1
    21     9    10    1
    22    10    11    1
    23    11    12    1
    24    12    13    1
    25    12    17    1
    26    17    18   ar
    27    18    19   ar
    28    19    20   ar
    29    20    21    1
    30    20    22   ar
    31    22    23   ar
    32    12    14    1
    33    14    15    1
    34     7     8    1
    35    34    29   ar
    36     8     5    1
    37    15     9    1
    38    23    17   ar
    39    25    28    1
    40     3     4    1
    41    13    16    1
@<TRIPOS>MOLECULE
*****
 38 41 0 0 0
SMALL
GASTEIGER

@<TRIPOS>ATOM
      1 O         139.2388  143.7327  159.2219 O.2     1  UNL1       -0.2733
      2 C         138.5579  142.5786  158.5479 C.2     1  UNL1        0.2426
      3 N         138.2302  141.3408  159.3292 N.am    1  UNL1       -0.3018
      4 H         137.7833  140.5833  158.8868 H       1  UNL1        0.1495
      5 C         138.5833  141.2572  160.7847 C.3     1  UNL1        0.1035
      6 C         139.8083  140.8685  161.5583 C.3     1  UNL1        0.0933
      7 N         139.0828  141.1389  162.8430 N.3     1  UNL1       -0.2711
      8 C         137.8578  141.5275  162.0695 C.3     1  UNL1        0.0933
      9 C         139.4360  141.0552  164.2984 C.3     1  UNL1        0.0578
     10 C         138.8549  139.9655  165.1498 C.3     1  UNL1        0.0187
     11 C         139.2081  139.8818  166.6052 C.3     1  UNL1        0.0325
     12 C         140.1424  140.8879  167.2093 C.3     1  UNL1        0.1070
     13 O         139.8506  140.0461  168.4159 O.3     1  UNL1       -0.3827
     14 C         140.7235  141.9777  166.3579 C.3     1  UNL1        0.0325
     15 C         140.3703  142.0613  164.9025 C.3     1  UNL1        0.0187
     16 H         139.2407  139.3322  168.1723 H       1  UNL1        0.2107
     17 C         140.9753  141.6017  168.2324 C.ar    1  UNL1        0.0019
     18 C         142.3597  141.1154  168.5442 C.ar    1  UNL1        0.0003
     19 C         143.1926  141.8291  169.5673 C.ar    1  UNL1        0.0294
     20 C         142.6412  143.0291  170.2786 C.ar    1  UNL1        0.1401
     21 F         143.4742  143.7428  171.3017 F       1  UNL1       -0.2042
     22 C         141.2570  143.5154  169.9669 C.ar    1  UNL1        0.0294
     23 C         140.4239  142.8017  168.9437 C.ar    1  UNL1        0.0003
     24 C         138.2048  142.6622  157.0925 C.3     1  UNL1        0.1759
     25 N         138.3647  143.9586  156.3551 N.am    1  UNL1       -0.2931
     26 C         139.7299  144.4231  155.9421 C.2     1  UNL1        0.2462
     27 O         140.9351  143.5911  156.2664 O.2     1  UNL1       -0.2701
     28 H         137.5737  144.5047  156.1423 H       1  UNL1        0.1502
     29 C         139.8898  145.7196  155.2047 C.ar    1  UNL1        0.0533
     30 C         140.7212  145.7754  153.9575 C.ar    1  UNL1        0.0045
     31 C         140.8811  147.0719  153.2203 C.ar    1  UNL1        0.0001
     32 C         140.2097  148.3124  153.7302 C.ar    1  UNL1        0.0039
     33 C         139.3783  148.2566  154.9774 C.ar    1  UNL1        0.0716
     34 C         139.2183  146.9601  155.7147 C.ar    1  UNL1        0.0084
     35 C         138.7068  149.4972  155.4874 C.3     1  UNL1        0.4186
     36 F         138.0353  150.7378  155.9973 F       1  UNL1       -0.1659
     37 F         138.9514  150.1712  154.1699 F       1  UNL1       -0.1659
     38 F         138.4621  148.8232  156.8049 F       1  UNL1       -0.1659
@<TRIPOS>BOND
     1     1     2    2
     2     2    24    1
     3    24    25    1
     4    25    26   am
     5    26    27    2
     6    26    29    1
     7    29    30   ar
     8    30    31   ar
     9    31    32   ar
    10    32    33   ar
    11    33    35    1
    12    35    36    1
    13    35    37    1
    14    35    38    1
    15    33    34   ar
    16     2     3   am
    17     3     5    1
    18     5     6    1
    19     6     7    1
    20     9     7    1
    21     9    10    1
    22    10    11    1
    23    11    12    1
    24    12    13    1
    25    12    17    1
    26    17    18   ar
    27    18    19   ar
    28    19    20   ar
    29    20    21    1
    30    20    22   ar
    31    22    23   ar
    32    12    14    1
    33    14    15    1
    34     7     8    1
    35    34    29   ar
    36     8     5    1
    37    15     9    1
    38    23    17   ar
    39    25    28    1
    40     3     4    1
    41    13    16    1
@<TRIPOS>MOLECULE
*****
 38 41 0 0 0
SMALL
GASTEIGER

@<TRIPOS>ATOM
      1 O         142.6972  137.7570  159.3155 O.2     1  UNL1       -0.2733
      2 C         142.7164  138.8729  158.3133 C.2     1  UNL1        0.2426
      3 N         142.7780  140.2976  158.7784 N.am    1  UNL1       -0.3018
      4 H         142.7905  141.0300  158.1206 H       1  UNL1        0.1495
      5 C         142.8203  140.6065  160.2457 C.3     1  UNL1        0.1035
      6 C         141.9345  141.3534  161.1983 C.3     1  UNL1        0.0933
      7 N         142.8802  141.0434  162.3207 N.3     1  UNL1       -0.2711
      8 C         143.7660  140.2964  161.3680 C.3     1  UNL1        0.0933
      9 C         142.9225  141.3522  163.7879 C.3     1  UNL1        0.0578
     10 C         143.8760  142.3861  164.3095 C.3     1  UNL1        0.0187
     11 C         143.9183  142.6950  165.7768 C.3     1  UNL1        0.0325
     12 C         143.0071  141.9700  166.7224 C.3     1  UNL1        0.1070
     13 O         143.7315  142.8593  167.6889 O.3     1  UNL1       -0.3827
     14 C         142.0537  140.9362  166.2008 C.3     1  UNL1        0.0325
     15 C         142.0113  140.6273  164.7336 C.3     1  UNL1        0.0187
     16 H         144.3739  143.4042  167.2079 H       1  UNL1        0.2107
     17 C         142.3475  141.5539  168.0037 C.ar    1  UNL1        0.0019
     18 C         142.6278  140.2004  168.5864 C.ar    1  UNL1        0.0003
     19 C         141.9682  139.7842  169.8677 C.ar    1  UNL1        0.0294
     20 C         141.0284  140.7217  170.5663 C.ar    1  UNL1        0.1401
     21 F         140.3689  140.3055  171.8476 F       1  UNL1       -0.2042
     22 C         140.7482  142.0751  169.9837 C.ar    1  UNL1        0.0294
     23 C         141.4077  142.4913  168.7024 C.ar    1  UNL1        0.0003
     24 C         142.6740  138.5641  156.8461 C.3     1  UNL1        0.1759
     25 N         142.4375  137.1573  156.3823 N.am    1  UNL1       -0.2931
     26 C         143.5411  136.3924  155.7139 C.2     1  UNL1        0.2462
     27 O         144.8813  137.0342  155.5092 O.2     1  UNL1       -0.2701
     28 H         141.5578  136.7360  156.5166 H       1  UNL1        0.1502
     29 C         143.3045  134.9856  155.2500 C.ar    1  UNL1        0.0533
     30 C         142.4981  134.7299  154.0114 C.ar    1  UNL1        0.0045
     31 C         142.2616  133.3232  153.5476 C.ar    1  UNL1        0.0001
     32 C         142.8315  132.1721  154.3224 C.ar    1  UNL1        0.0039
     33 C         143.6380  132.4279  155.5610 C.ar    1  UNL1        0.0716
     34 C         143.8745  133.8346  156.0248 C.ar    1  UNL1        0.0084
     35 C         144.2079  131.2768  156.3359 C.3     1  UNL1        0.4186
     36 F         144.7779  130.1258  157.1107 F       1  UNL1       -0.1659
     37 F         142.8629  130.6129  156.3390 F       1  UNL1       -0.1659
     38 F         145.5530  131.9408  156.3327 F       1  UNL1       -0.1659
@<TRIPOS>BOND
     1     1     2    2
     2     2    24    1
     3    24    25    1
     4    25    26   am
     5    26    27    2
     6    26    29    1
     7    29    30   ar
     8    30    31   ar
     9    31    32   ar
    10    32    33   ar
    11    33    35    1
    12    35    36    1
    13    35    37    1
    14    35    38    1
    15    33    34   ar
    16     2     3   am
    17     3     5    1
    18     5     6    1
    19     6     7    1
    20     9     7    1
    21     9    10    1
    22    10    11    1
    23    11    12    1
    24    12    13    1
    25    12    17    1
    26    17    18   ar
    27    18    19   ar
    28    19    20   ar
    29    20    21    1
    30    20    22   ar
    31    22    23   ar
    32    12    14    1
    33    14    15    1
    34     7     8    1
    35    34    29   ar
    36     8     5    1
    37    15     9    1
    38    23    17   ar
    39    25    28    1
    40     3     4    1
    41    13    16    1
@<TRIPOS>MOLECULE
*****
 38 41 0 0 0
SMALL
GASTEIGER

@<TRIPOS>ATOM
      1 O         142.4497  142.5296  162.3129 O.2     1  UNL1       -0.2733
      2 C         142.3366  141.0793  161.9470 C.2     1  UNL1        0.2426
      3 N         141.6927  140.6805  160.6522 N.am    1  UNL1       -0.3018
      4 H         141.6185  139.7287  160.4121 H       1  UNL1        0.1495
      5 C         141.1619  141.7320  159.7234 C.3     1  UNL1        0.1035
      6 C         141.5317  142.2232  158.3552 C.3     1  UNL1        0.0933
      7 N         140.4113  143.2190  158.4098 N.3     1  UNL1       -0.2711
      8 C         140.0414  142.7278  159.7780 C.3     1  UNL1        0.0933
      9 C         139.8805  144.2704  157.4810 C.3     1  UNL1        0.0578
     10 C         138.8060  143.9251  156.4929 C.3     1  UNL1        0.0187
     11 C         138.2753  144.9767  155.5641 C.3     1  UNL1        0.0325
     12 C         138.8189  146.3734  155.6234 C.3     1  UNL1        0.1070
     13 O         137.8119  146.5323  154.5232 O.3     1  UNL1       -0.3827
     14 C         139.8934  146.7187  156.6115 C.3     1  UNL1        0.0325
     15 C         140.4242  145.6672  157.5403 C.3     1  UNL1        0.0187
     16 H         137.3665  145.6848  154.3676 H       1  UNL1        0.2107
     17 C         139.0129  147.8253  155.3006 C.ar    1  UNL1        0.0019
     18 C         139.7904  148.2253  154.0817 C.ar    1  UNL1        0.0003
     19 C         139.9844  149.6772  153.7589 C.ar    1  UNL1        0.0294
     20 C         139.4008  150.7292  154.6550 C.ar    1  UNL1        0.1401
     21 F         139.5947  152.1811  154.3321 F       1  UNL1       -0.2042
     22 C         138.6233  150.3293  155.8737 C.ar    1  UNL1        0.0294
     23 C         138.4293  148.8773  156.1966 C.ar    1  UNL1        0.0003
     24 C         142.8674  140.0279  162.8757 C.3     1  UNL1        0.1759
     25 N         142.4340  140.0075  164.3116 N.am    1  UNL1       -0.2931
     26 C         143.1630  140.8368  165.3269 C.2     1  UNL1        0.2462
     27 O         144.3253  141.6866  164.9063 O.2     1  UNL1       -0.2701
     28 H         141.6712  139.4497  164.5877 H       1  UNL1        0.1502
     29 C         142.7296  140.8164  166.7628 C.ar    1  UNL1        0.0533
     30 C         142.8306  139.5491  167.5588 C.ar    1  UNL1        0.0045
     31 C         142.3973  139.5287  168.9947 C.ar    1  UNL1        0.0001
     32 C         141.8629  140.7757  169.6346 C.ar    1  UNL1        0.0039
     33 C         141.7618  142.0431  168.8386 C.ar    1  UNL1        0.0716
     34 C         142.1952  142.0634  167.4027 C.ar    1  UNL1        0.0084
     35 C         141.2274  143.2900  169.4785 C.3     1  UNL1        0.4186
     36 F         140.6930  144.5370  170.1183 F       1  UNL1       -0.1659
     37 F         142.2877  143.2018  170.5358 F       1  UNL1       -0.1659
     38 F         140.1672  143.3782  168.4211 F       1  UNL1       -0.1659
@<TRIPOS>BOND
     1     1     2    2
     2     2    24    1
     3    24    25    1
     4    25    26   am
     5    26    27    2
     6    26    29    1
     7    29    30   ar
     8    30    31   ar
     9    31    32   ar
    10    32    33   ar
    11    33    35    1
    12    35    36    1
    13    35    37    1
    14    35    38    1
    15    33    34   ar
    16     2     3   am
    17     3     5    1
    18     5     6    1
    19     6     7    1
    20     9     7    1
    21     9    10    1
    22    10    11    1
    23    11    12    1
    24    12    13    1
    25    12    17    1
    26    17    18   ar
    27    18    19   ar
    28    19    20   ar
    29    20    21    1
    30    20    22   ar
    31    22    23   ar
    32    12    14    1
    33    14    15    1
    34     7     8    1
    35    34    29   ar
    36     8     5    1
    37    15     9    1
    38    23    17   ar
    39    25    28    1
    40     3     4    1
    41    13    16    1
@<TRIPOS>MOLECULE
*****
 38 41 0 0 0
SMALL
GASTEIGER

@<TRIPOS>ATOM
      1 O         138.1989  139.8842  158.2335 O.2     1  UNL1       -0.2733
      2 C         137.7400  141.2078  157.6974 C.2     1  UNL1        0.2426
      3 N         138.0306  142.4670  158.4589 N.am    1  UNL1       -0.3018
      4 H         137.7293  143.3357  158.1070 H       1  UNL1        0.1495
      5 C         138.7802  142.4026  159.7566 C.3     1  UNL1        0.1035
      6 C         139.8990  141.5607  160.2946 C.3     1  UNL1        0.0933
      7 N         139.8403  142.3115  161.5918 N.3     1  UNL1       -0.2711
      8 C         138.7215  143.1534  161.0539 C.3     1  UNL1        0.0933
      9 C         140.5899  142.2471  162.8894 C.3     1  UNL1        0.0578
     10 C         142.0199  142.6958  162.9526 C.3     1  UNL1        0.0187
     11 C         142.7695  142.6314  164.2504 C.3     1  UNL1        0.0325
     12 C         142.0892  142.1183  165.4848 C.3     1  UNL1        0.1070
     13 O         143.4465  142.4259  166.0441 O.3     1  UNL1       -0.3827
     14 C         140.6592  141.6696  165.4216 C.3     1  UNL1        0.0325
     15 C         139.9096  141.7340  164.1239 C.3     1  UNL1        0.0187
     16 H         144.0143  142.7768  165.3403 H       1  UNL1        0.2107
     17 C         141.8802  141.7120  166.9135 C.ar    1  UNL1        0.0019
     18 C         142.5629  140.4902  167.4533 C.ar    1  UNL1        0.0003
     19 C         142.3540  140.0840  168.8820 C.ar    1  UNL1        0.0294
     20 C         141.4624  140.8994  169.7710 C.ar    1  UNL1        0.1401
     21 F         141.2535  140.4931  171.1997 F       1  UNL1       -0.2042
     22 C         140.7798  142.1211  169.2312 C.ar    1  UNL1        0.0294
     23 C         140.9886  142.5275  167.8024 C.ar    1  UNL1        0.0003
     24 C         136.9904  141.2722  156.3998 C.3     1  UNL1        0.1759
     25 N         135.4945  141.3848  156.4024 N.am    1  UNL1       -0.2931
     26 C         134.6543  140.2244  155.9580 C.2     1  UNL1        0.2462
     27 O         135.3098  138.9515  155.5110 O.2     1  UNL1       -0.2701
     28 H         135.0643  142.2203  156.6959 H       1  UNL1        0.1502
     29 C         133.1585  140.3370  155.9607 C.ar    1  UNL1        0.0533
     30 C         132.4911  141.4798  155.2546 C.ar    1  UNL1        0.0045
     31 C         130.9954  141.5923  155.2573 C.ar    1  UNL1        0.0001
     32 C         130.1670  140.5621  155.9661 C.ar    1  UNL1        0.0039
     33 C         130.8344  139.4193  156.6722 C.ar    1  UNL1        0.0716
     34 C         132.3301  139.3068  156.6695 C.ar    1  UNL1        0.0084
     35 C         130.0060  138.3890  157.3810 C.3     1  UNL1        0.4186
     36 F         129.1777  137.3587  158.0898 F       1  UNL1       -0.1659
     37 F         130.2697  137.4141  156.2719 F       1  UNL1       -0.1659
     38 F         129.7424  139.3640  158.4900 F       1  UNL1       -0.1659
@<TRIPOS>BOND
     1     1     2    2
     2     2    24    1
     3    24    25    1
     4    25    26   am
     5    26    27    2
     6    26    29    1
     7    29    30   ar
     8    30    31   ar
     9    31    32   ar
    10    32    33   ar
    11    33    35    1
    12    35    36    1
    13    35    37    1
    14    35    38    1
    15    33    34   ar
    16     2     3   am
    17     3     5    1
    18     5     6    1
    19     6     7    1
    20     9     7    1
    21     9    10    1
    22    10    11    1
    23    11    12    1
    24    12    13    1
    25    12    17    1
    26    17    18   ar
    27    18    19   ar
    28    19    20   ar
    29    20    21    1
    30    20    22   ar
    31    22    23   ar
    32    12    14    1
    33    14    15    1
    34     7     8    1
    35    34    29   ar
    36     8     5    1
    37    15     9    1
    38    23    17   ar
    39    25    28    1
    40     3     4    1
    41    13    16    1
@<TRIPOS>MOLECULE
*****
 38 41 0 0 0
SMALL
GASTEIGER

@<TRIPOS>ATOM
      1 O         140.0694  142.2638  158.0669 O.2     1  UNL1       -0.2733
      2 C         140.4729  142.4191  159.5032 C.2     1  UNL1        0.2426
      3 N         141.9258  142.4518  159.8747 N.am    1  UNL1       -0.3018
      4 H         142.1906  142.5538  160.8174 H       1  UNL1        0.1495
      5 C         142.9752  142.3292  158.8099 C.3     1  UNL1        0.1035
      6 C         143.3960  143.1610  157.6347 C.3     1  UNL1        0.0933
      7 N         144.4592  142.1559  157.3040 N.3     1  UNL1       -0.2711
      8 C         144.0384  141.3241  158.4792 C.3     1  UNL1        0.0933
      9 C         145.5085  142.0334  156.2392 C.3     1  UNL1        0.0578
     10 C         145.1918  141.3331  154.9511 C.3     1  UNL1        0.0187
     11 C         146.2412  141.2106  153.8862 C.3     1  UNL1        0.0325
     12 C         147.6073  141.7883  154.1096 C.3     1  UNL1        0.1070
     13 O         147.7866  141.2202  152.7330 O.3     1  UNL1       -0.3827
     14 C         147.9241  142.4886  155.3977 C.3     1  UNL1        0.0325
     15 C         146.8747  142.6111  156.4625 C.3     1  UNL1        0.0187
     16 H         146.9602  140.8011  152.4460 H       1  UNL1        0.2107
     17 C         149.0357  142.1687  153.8548 C.ar    1  UNL1        0.0019
     18 C         150.1360  141.5225  154.6433 C.ar    1  UNL1        0.0003
     19 C         151.5644  141.9029  154.3886 C.ar    1  UNL1        0.0294
     20 C         151.8925  142.9296  153.3453 C.ar    1  UNL1        0.1401
     21 F         153.3209  143.3100  153.0906 F       1  UNL1       -0.2042
     22 C         150.7923  143.5758  152.5568 C.ar    1  UNL1        0.0294
     23 C         149.3638  143.1954  152.8115 C.ar    1  UNL1        0.0003
     24 C         139.4236  142.5417  160.5680 C.3     1  UNL1        0.1759
     25 N         139.7082  142.0614  161.9603 N.am    1  UNL1       -0.2931
     26 C         138.5937  141.5331  162.8139 C.2     1  UNL1        0.2462
     27 O         137.1945  141.4851  162.2753 O.2     1  UNL1       -0.2701
     28 H         140.6265  142.0929  162.3138 H       1  UNL1        0.1502
     29 C         138.8782  141.0528  164.2062 C.ar    1  UNL1        0.0533
     30 C         139.7790  141.8476  165.1043 C.ar    1  UNL1        0.0045
     31 C         140.0636  141.3673  166.4965 C.ar    1  UNL1        0.0001
     32 C         139.4473  140.0921  166.9906 C.ar    1  UNL1        0.0039
     33 C         138.5465  139.2972  166.0924 C.ar    1  UNL1        0.0716
     34 C         138.2620  139.7776  164.7002 C.ar    1  UNL1        0.0084
     35 C         137.9303  138.0220  166.5865 C.3     1  UNL1        0.4186
     36 F         137.3140  136.7468  167.0805 F       1  UNL1       -0.1659
     37 F         138.4894  137.2926  165.4010 F       1  UNL1       -0.1659
     38 F         137.3712  138.7515  167.7720 F       1  UNL1       -0.1659
@<TRIPOS>BOND
     1     1     2    2
     2     2    24    1
     3    24    25    1
     4    25    26   am
     5    26    27    2
     6    26    29    1
     7    29    30   ar
     8    30    31   ar
     9    31    32   ar
    10    32    33   ar
    11    33    35    1
    12    35    36    1
    13    35    37    1
    14    35    38    1
    15    33    34   ar
    16     2     3   am
    17     3     5    1
    18     5     6    1
    19     6     7    1
    20     9     7    1
    21     9    10    1
    22    10    11    1
    23    11    12    1
    24    12    13    1
    25    12    17    1
    26    17    18   ar
    27    18    19   ar
    28    19    20   ar
    29    20    21    1
    30    20    22   ar
    31    22    23   ar
    32    12    14    1
    33    14    15    1
    34     7     8    1
    35    34    29   ar
    36     8     5    1
    37    15     9    1
    38    23    17   ar
    39    25    28    1
    40     3     4    1
    41    13    16    1
