@<TRIPOS>MOLECULE
*****
 44 46 0 0 0
SMALL
GASTEIGER

@<TRIPOS>ATOM
      1 C         141.7446  138.9107  157.7126 C.3     1  UNL1        0.1895
      2 C         141.7128  134.8853  155.7013 C.ar    1  UNL1        0.1247
      3 C         140.6467  135.8912  155.3830 C.ar    1  UNL1        0.0212
      4 C         140.6573  137.2330  156.0534 C.ar    1  UNL1        0.0182
      5 C         141.7340  137.5689  157.0422 C.ar    1  UNL1        0.0859
      6 N         142.8001  136.5630  157.3606 N.ar    1  UNL1       -0.2447
      7 C         142.7896  135.2212  156.6901 C.ar    1  UNL1        0.1168
      8 S         141.7023  133.5435  155.0309 S.O2    1  UNL1        0.0101
      9 O         141.3568  134.1981  153.7263 O.2     1  UNL1       -0.1686
     10 O         142.0477  132.8889  156.3356 O.2     1  UNL1       -0.1686
     11 C         140.5868  131.2286  154.6473 C.3     1  UNL1        0.0276
     12 C         141.6917  132.2017  154.3605 C.3     1  UNL1        0.1560
     13 N         142.1661  140.1289  156.9457 N.am    1  UNL1       -0.2935
     14 C         143.5937  140.5871  156.9913 C.2     1  UNL1        0.2275
     15 O         144.5998  139.8269  157.8038 O.2     1  UNL1       -0.2747
     16 H         141.5058  140.6278  156.4125 H       1  UNL1        0.1502
     17 C         144.0153  141.8054  156.2244 C.3     1  UNL1        0.1113
     18 C         145.3890  141.8770  155.6264 C.ar    1  UNL1       -0.0131
     19 C         146.5690  142.1998  156.4945 C.ar    1  UNL1       -0.0038
     20 C         147.9428  142.2714  155.8964 C.ar    1  UNL1       -0.0003
     21 C         148.1366  142.0202  154.4303 C.ar    1  UNL1       -0.0000
     22 C         146.9566  141.6975  153.5623 C.ar    1  UNL1       -0.0003
     23 C         145.5828  141.6258  154.1604 C.ar    1  UNL1       -0.0038
     24 C         141.3335  139.0342  159.1498 C.2     1  UNL1        0.2499
     25 O         142.0999  139.9330  160.0745 O.2     1  UNL1       -0.2726
     26 N         140.1562  138.2590  159.6625 N.am    1  UNL1       -0.2823
     27 H         139.6532  137.6691  159.0557 H       1  UNL1        0.1549
     28 C         139.7452  138.3826  161.0999 C.ar    1  UNL1        0.0503
     29 C         140.5737  137.7433  162.1745 C.ar    1  UNL1        0.0144
     30 C         140.1627  137.8669  163.6118 C.ar    1  UNL1       -0.0002
     31 C         138.9232  138.6298  163.9745 C.ar    1  UNL1        0.0182
     32 C         138.0947  139.2692  162.8998 C.ar    1  UNL1       -0.0002
     33 C         138.5057  139.1456  161.4626 C.ar    1  UNL1        0.0144
     34 C         138.5122  138.7534  165.4117 C.3     1  UNL1        0.2827
     35 O         138.5210  137.2592  165.5428 O.3     1  UNL1       -0.3692
     36 H         138.2723  137.0125  166.4473 H       1  UNL1        0.2112
     37 C         138.1012  138.8770  166.8490 C.3     1  UNL1        0.4311
     38 F         137.6901  139.0006  168.2863 F       1  UNL1       -0.1669
     39 F         139.4752  139.3658  167.1999 F       1  UNL1       -0.1669
     40 F         137.2663  138.5994  166.7468 F       1  UNL1       -0.1669
     41 C         138.5034  140.2476  165.2807 C.3     1  UNL1        0.4311
     42 F         138.4947  141.7419  165.1497 F       1  UNL1       -0.1669
     43 F         137.6302  140.3595  165.3779 F       1  UNL1       -0.1669
     44 F         139.9460  140.6022  165.0724 F       1  UNL1       -0.1669
@<TRIPOS>BOND
     1    11    12    1
     2    12     8    1
     3     8     9    2
     4     8    10    2
     5     8     2    1
     6     2     3   ar
     7     3     4   ar
     8     4     5   ar
     9     5     1    1
    10     1    13    1
    11    13    14   am
    12    14    15    2
    13    14    17    1
    14    17    18    1
    15    18    19   ar
    16    19    20   ar
    17    20    21   ar
    18    21    22   ar
    19    22    23   ar
    20     1    24    1
    21    24    25    2
    22    24    26   am
    23    26    28    1
    24    28    29   ar
    25    29    30   ar
    26    30    31   ar
    27    31    34    1
    28    34    35    1
    29    34    37    1
    30    37    38    1
    31    37    39    1
    32    37    40    1
    33    34    41    1
    34    41    42    1
    35    41    43    1
    36    41    44    1
    37    31    32   ar
    38    32    33   ar
    39     5     6   ar
    40     6     7   ar
    41     7     2   ar
    42    23    18   ar
    43    33    28   ar
    44    13    16    1
    45    26    27    1
    46    35    36    1
@<TRIPOS>MOLECULE
*****
 44 46 0 0 0
SMALL
GASTEIGER

@<TRIPOS>ATOM
      1 C         142.2417  138.1918  157.5348 C.3     1  UNL1        0.1895
      2 C         145.5838  140.8588  156.1321 C.ar    1  UNL1        0.1247
      3 C         144.7976  141.2226  157.3566 C.ar    1  UNL1        0.0212
      4 C         143.6835  140.3336  157.8241 C.ar    1  UNL1        0.0182
      5 C         143.3557  139.0808  157.0672 C.ar    1  UNL1        0.0859
      6 N         144.1420  138.7169  155.8428 N.ar    1  UNL1       -0.2447
      7 C         145.2560  139.6059  155.3752 C.ar    1  UNL1        0.1168
      8 S         146.6978  141.7478  155.6645 S.O2    1  UNL1        0.0101
      9 O         146.6093  141.1391  154.2964 O.2     1  UNL1       -0.1686
     10 O         146.7864  142.3564  157.0326 O.2     1  UNL1       -0.1686
     11 C         148.8357  142.1128  154.2341 C.3     1  UNL1        0.0276
     12 C         147.8119  142.6368  155.1969 C.3     1  UNL1        0.1560
     13 N         141.5703  137.2602  156.5698 N.am    1  UNL1       -0.2935
     14 C         142.1624  135.9094  156.2961 C.2     1  UNL1        0.2275
     15 O         143.4259  135.4903  156.9873 O.2     1  UNL1       -0.2747
     16 H         140.7410  137.5352  156.1162 H       1  UNL1        0.1502
     17 C         141.4909  134.9778  155.3311 C.3     1  UNL1        0.1113
     18 C         142.0910  133.6329  155.0461 C.ar    1  UNL1       -0.0131
     19 C         142.3491  132.6734  156.1698 C.ar    1  UNL1       -0.0038
     20 C         142.9492  131.3286  155.8848 C.ar    1  UNL1       -0.0003
     21 C         143.2912  130.9432  154.4761 C.ar    1  UNL1       -0.0000
     22 C         143.0332  131.9027  153.3524 C.ar    1  UNL1       -0.0003
     23 C         142.4330  133.2476  153.6374 C.ar    1  UNL1       -0.0038
     24 C         141.7991  138.2344  158.9674 C.2     1  UNL1        0.2499
     25 O         142.6385  137.5911  160.0312 O.2     1  UNL1       -0.2726
     26 N         140.5171  138.9204  159.3362 N.am    1  UNL1       -0.2823
     27 H         139.9662  139.3426  158.6380 H       1  UNL1        0.1549
     28 C         140.0745  138.9630  160.7688 C.ar    1  UNL1        0.0503
     29 C         138.9987  138.0348  161.2493 C.ar    1  UNL1        0.0144
     30 C         138.5561  138.0774  162.6820 C.ar    1  UNL1       -0.0002
     31 C         139.1894  139.0483  163.6340 C.ar    1  UNL1        0.0182
     32 C         140.2653  139.9765  163.1534 C.ar    1  UNL1       -0.0002
     33 C         140.7078  139.9339  161.7208 C.ar    1  UNL1        0.0144
     34 C         138.7469  139.0909  165.0666 C.3     1  UNL1        0.2827
     35 O         139.2934  137.7099  165.2765 O.3     1  UNL1       -0.3692
     36 H         139.1414  137.4383  166.1952 H       1  UNL1        0.2112
     37 C         138.3043  139.1336  166.4991 C.3     1  UNL1        0.4311
     38 F         137.8617  139.1762  167.9318 F       1  UNL1       -0.1669
     39 F         139.7328  139.2684  166.9364 F       1  UNL1       -0.1669
     40 F         137.4352  139.0576  166.3460 F       1  UNL1       -0.1669
     41 C         138.2003  140.4719  164.8566 C.3     1  UNL1        0.4311
     42 F         137.6537  141.8530  164.6467 F       1  UNL1       -0.1669
     43 F         137.5499  140.2470  164.2991 F       1  UNL1       -0.1669
     44 F         139.0797  141.3430  165.7040 F       1  UNL1       -0.1669
@<TRIPOS>BOND
     1    11    12    1
     2    12     8    1
     3     8     9    2
     4     8    10    2
     5     8     2    1
     6     2     3   ar
     7     3     4   ar
     8     4     5   ar
     9     5     1    1
    10     1    13    1
    11    13    14   am
    12    14    15    2
    13    14    17    1
    14    17    18    1
    15    18    19   ar
    16    19    20   ar
    17    20    21   ar
    18    21    22   ar
    19    22    23   ar
    20     1    24    1
    21    24    25    2
    22    24    26   am
    23    26    28    1
    24    28    29   ar
    25    29    30   ar
    26    30    31   ar
    27    31    34    1
    28    34    35    1
    29    34    37    1
    30    37    38    1
    31    37    39    1
    32    37    40    1
    33    34    41    1
    34    41    42    1
    35    41    43    1
    36    41    44    1
    37    31    32   ar
    38    32    33   ar
    39     5     6   ar
    40     6     7   ar
    41     7     2   ar
    42    23    18   ar
    43    33    28   ar
    44    13    16    1
    45    26    27    1
    46    35    36    1
@<TRIPOS>MOLECULE
*****
 44 46 0 0 0
SMALL
GASTEIGER

@<TRIPOS>ATOM
      1 C         142.5862  138.1456  157.1700 C.3     1  UNL1        0.1895
      2 C         142.1781  133.8196  155.9996 C.ar    1  UNL1        0.1247
      3 C         141.3580  134.8654  155.3040 C.ar    1  UNL1        0.0212
      4 C         141.4941  136.3074  155.6941 C.ar    1  UNL1        0.0182
      5 C         142.4502  136.7036  156.7799 C.ar    1  UNL1        0.0859
      6 N         143.2702  135.6579  157.4755 N.ar    1  UNL1       -0.2447
      7 C         143.1342  134.2159  157.0853 C.ar    1  UNL1        0.1168
      8 S         142.0420  132.3777  155.6095 S.O2    1  UNL1        0.0101
      9 O         141.5601  132.7908  154.2504 O.2     1  UNL1       -0.1686
     10 O         142.5239  131.9645  156.9686 O.2     1  UNL1       -0.1686
     11 C         140.5638  130.3853  154.8379 C.3     1  UNL1        0.0276
     12 C         141.9060  130.9357  155.2194 C.3     1  UNL1        0.1560
     13 N         142.9262  139.1743  156.1327 N.am    1  UNL1       -0.2935
     14 C         144.2200  139.0807  155.3794 C.2     1  UNL1        0.2275
     15 O         145.1737  137.9584  155.6635 O.2     1  UNL1       -0.2747
     16 H         142.3003  139.9110  155.9462 H       1  UNL1        0.1502
     17 C         144.5600  140.1095  154.3421 C.3     1  UNL1        0.1113
     18 C         145.8700  140.8372  154.4086 C.ar    1  UNL1       -0.0131
     19 C         146.3962  141.3153  155.7295 C.ar    1  UNL1       -0.0038
     20 C         147.7062  142.0429  155.7960 C.ar    1  UNL1       -0.0003
     21 C         148.4901  142.2924  154.5417 C.ar    1  UNL1       -0.0000
     22 C         147.9639  141.8143  153.2209 C.ar    1  UNL1       -0.0003
     23 C         146.6539  141.0867  153.1543 C.ar    1  UNL1       -0.0038
     24 C         142.3822  138.5588  158.5974 C.2     1  UNL1        0.2499
     25 O         141.2678  139.4973  158.9546 O.2     1  UNL1       -0.2726
     26 N         143.2925  138.0337  159.6677 N.am    1  UNL1       -0.2823
     27 H         144.0240  137.4178  159.4333 H       1  UNL1        0.1549
     28 C         143.0885  138.4470  161.0951 C.ar    1  UNL1        0.0503
     29 C         143.8587  139.6044  161.6582 C.ar    1  UNL1        0.0144
     30 C         143.6546  140.0177  163.0857 C.ar    1  UNL1       -0.0002
     31 C         142.6804  139.2736  163.9500 C.ar    1  UNL1        0.0182
     32 C         141.9102  138.1161  163.3868 C.ar    1  UNL1       -0.0002
     33 C         142.1142  137.7028  161.9594 C.ar    1  UNL1        0.0144
     34 C         142.4763  139.6868  165.3774 C.3     1  UNL1        0.2827
     35 O         141.5201  140.7532  164.9320 O.3     1  UNL1       -0.3692
     36 H         141.1895  141.2350  165.7063 H       1  UNL1        0.2112
     37 C         142.2722  140.1000  166.8048 C.3     1  UNL1        0.4311
     38 F         142.0682  140.5133  168.2323 F       1  UNL1       -0.1669
     39 F         140.9020  139.4900  166.7855 F       1  UNL1       -0.1669
     40 F         143.0606  140.4873  166.9189 F       1  UNL1       -0.1669
     41 C         143.4325  138.6204  165.8229 C.3     1  UNL1        0.4311
     42 F         144.3888  137.5540  166.2683 F       1  UNL1       -0.1669
     43 F         142.8317  138.0830  166.1898 F       1  UNL1       -0.1669
     44 F         144.7727  139.1250  165.3762 F       1  UNL1       -0.1669
@<TRIPOS>BOND
     1    11    12    1
     2    12     8    1
     3     8     9    2
     4     8    10    2
     5     8     2    1
     6     2     3   ar
     7     3     4   ar
     8     4     5   ar
     9     5     1    1
    10     1    13    1
    11    13    14   am
    12    14    15    2
    13    14    17    1
    14    17    18    1
    15    18    19   ar
    16    19    20   ar
    17    20    21   ar
    18    21    22   ar
    19    22    23   ar
    20     1    24    1
    21    24    25    2
    22    24    26   am
    23    26    28    1
    24    28    29   ar
    25    29    30   ar
    26    30    31   ar
    27    31    34    1
    28    34    35    1
    29    34    37    1
    30    37    38    1
    31    37    39    1
    32    37    40    1
    33    34    41    1
    34    41    42    1
    35    41    43    1
    36    41    44    1
    37    31    32   ar
    38    32    33   ar
    39     5     6   ar
    40     6     7   ar
    41     7     2   ar
    42    23    18   ar
    43    33    28   ar
    44    13    16    1
    45    26    27    1
    46    35    36    1
@<TRIPOS>MOLECULE
*****
 44 46 0 0 0
SMALL
GASTEIGER

@<TRIPOS>ATOM
      1 C         141.5963  137.0845  156.4822 C.3     1  UNL1        0.1895
      2 C         143.2646  132.9325  156.0054 C.ar    1  UNL1        0.1247
      3 C         142.0971  133.3718  155.1725 C.ar    1  UNL1        0.0212
      4 C         141.5410  134.7559  155.3314 C.ar    1  UNL1        0.0182
      5 C         142.1524  135.7005  156.3233 C.ar    1  UNL1        0.0859
      6 N         143.3200  135.2611  157.1562 N.ar    1  UNL1       -0.2447
      7 C         143.8760  133.8771  156.9973 C.ar    1  UNL1        0.1168
      8 S         143.8207  131.5484  155.8465 S.O2    1  UNL1        0.0101
      9 O         142.4410  131.0249  155.5776 O.2     1  UNL1       -0.1686
     10 O         145.2004  132.0719  156.1155 O.2     1  UNL1       -0.1686
     11 C         144.6960  129.6368  154.3203 C.3     1  UNL1        0.0276
     12 C         144.3768  130.1644  155.6876 C.3     1  UNL1        0.1560
     13 N         140.9341  137.7646  155.3208 N.am    1  UNL1       -0.2935
     14 C         139.4555  137.6226  155.1120 C.2     1  UNL1        0.2275
     15 O         138.6392  136.8004  156.0646 O.2     1  UNL1       -0.2747
     16 H         141.4699  138.3043  154.6955 H       1  UNL1        0.1502
     17 C         138.7933  138.3027  153.9505 C.3     1  UNL1        0.1113
     18 C         137.6553  139.2511  154.1862 C.ar    1  UNL1       -0.0131
     19 C         136.2536  138.7282  154.2956 C.ar    1  UNL1       -0.0038
     20 C         135.1156  139.6766  154.5313 C.ar    1  UNL1       -0.0003
     21 C         135.3793  141.1479  154.6574 C.ar    1  UNL1       -0.0000
     22 C         136.7810  141.6707  154.5479 C.ar    1  UNL1       -0.0003
     23 C         137.9190  140.7223  154.3123 C.ar    1  UNL1       -0.0038
     24 C         141.7025  137.7884  157.8024 C.2     1  UNL1        0.2499
     25 O         140.4775  138.3724  158.4417 O.2     1  UNL1       -0.2726
     26 N         143.0335  137.9084  158.4836 N.am    1  UNL1       -0.2823
     27 H         143.8375  137.5251  158.0641 H       1  UNL1        0.1549
     28 C         143.1396  138.6123  159.8039 C.ar    1  UNL1        0.0503
     29 C         142.7969  137.8860  161.0708 C.ar    1  UNL1        0.0144
     30 C         142.9030  138.5900  162.3911 C.ar    1  UNL1       -0.0002
     31 C         143.3518  140.0203  162.4445 C.ar    1  UNL1        0.0182
     32 C         143.6945  140.7466  161.1776 C.ar    1  UNL1       -0.0002
     33 C         143.5884  140.0426  159.8573 C.ar    1  UNL1        0.0144
     34 C         143.4579  140.7242  163.7648 C.3     1  UNL1        0.2827
     35 O         142.3298  141.6313  163.3718 O.3     1  UNL1       -0.3692
     36 H         142.1513  142.2560  164.0921 H       1  UNL1        0.2112
     37 C         143.5640  141.4282  165.0851 C.3     1  UNL1        0.4311
     38 F         143.6702  142.1322  166.4054 F       1  UNL1       -0.1669
     39 F         142.2060  140.9180  165.4662 F       1  UNL1       -0.1669
     40 F         144.3677  141.7779  164.9567 F       1  UNL1       -0.1669
     41 C         144.5861  139.8172  164.1578 C.3     1  UNL1        0.4311
     42 F         145.7143  138.9100  164.5508 F       1  UNL1       -0.1669
     43 F         145.1839  140.1347  163.5867 F       1  UNL1       -0.1669
     44 F         144.0037  138.9637  165.2453 F       1  UNL1       -0.1669
@<TRIPOS>BOND
     1    11    12    1
     2    12     8    1
     3     8     9    2
     4     8    10    2
     5     8     2    1
     6     2     3   ar
     7     3     4   ar
     8     4     5   ar
     9     5     1    1
    10     1    13    1
    11    13    14   am
    12    14    15    2
    13    14    17    1
    14    17    18    1
    15    18    19   ar
    16    19    20   ar
    17    20    21   ar
    18    21    22   ar
    19    22    23   ar
    20     1    24    1
    21    24    25    2
    22    24    26   am
    23    26    28    1
    24    28    29   ar
    25    29    30   ar
    26    30    31   ar
    27    31    34    1
    28    34    35    1
    29    34    37    1
    30    37    38    1
    31    37    39    1
    32    37    40    1
    33    34    41    1
    34    41    42    1
    35    41    43    1
    36    41    44    1
    37    31    32   ar
    38    32    33   ar
    39     5     6   ar
    40     6     7   ar
    41     7     2   ar
    42    23    18   ar
    43    33    28   ar
    44    13    16    1
    45    26    27    1
    46    35    36    1
@<TRIPOS>MOLECULE
*****
 44 46 0 0 0
SMALL
GASTEIGER

@<TRIPOS>ATOM
      1 C         139.8358  143.3739  157.2128 C.3     1  UNL1        0.1895
      2 C         139.3316  144.2677  161.5942 C.ar    1  UNL1        0.1247
      3 C         140.2677  145.0940  160.7631 C.ar    1  UNL1        0.0212
      4 C         140.4358  144.7961  159.3026 C.ar    1  UNL1        0.0182
      5 C         139.6677  143.6718  158.6733 C.ar    1  UNL1        0.0859
      6 N         138.7316  142.8455  159.5044 N.ar    1  UNL1       -0.2447
      7 C         138.5636  143.1434  160.9649 C.ar    1  UNL1        0.1168
      8 S         139.1635  144.5656  163.0547 S.O2    1  UNL1        0.0101
      9 O         137.6731  144.5125  162.8940 O.2     1  UNL1       -0.1686
     10 O         140.6539  144.6186  163.2154 O.2     1  UNL1       -0.1686
     11 C         139.4732  143.8792  165.5412 C.3     1  UNL1        0.0276
     12 C         138.9954  144.8635  164.5152 C.3     1  UNL1        0.1560
     13 N         139.4106  144.3830  156.1877 N.am    1  UNL1       -0.2935
     14 C         140.3954  145.3910  155.6739 C.2     1  UNL1        0.2275
     15 O         141.8056  145.3899  156.1852 O.2     1  UNL1       -0.2747
     16 H         138.4850  144.3838  155.8521 H       1  UNL1        0.1502
     17 C         139.9701  146.4001  154.6488 C.3     1  UNL1        0.1113
     18 C         139.5197  147.7641  155.0809 C.ar    1  UNL1       -0.0131
     19 C         138.8445  147.9454  156.4081 C.ar    1  UNL1       -0.0038
     20 C         138.3940  149.3094  156.8402 C.ar    1  UNL1       -0.0003
     21 C         138.6188  150.4920  155.9452 C.ar    1  UNL1       -0.0000
     22 C         139.2939  150.3106  154.6181 C.ar    1  UNL1       -0.0003
     23 C         139.7444  148.9467  154.1860 C.ar    1  UNL1       -0.0038
     24 C         140.4292  142.0669  156.7774 C.2     1  UNL1        0.2499
     25 O         141.6904  142.0492  155.9655 O.2     1  UNL1       -0.2726
     26 N         139.7613  140.7776  157.1538 N.am    1  UNL1       -0.2823
     27 H         138.9335  140.7892  157.6866 H       1  UNL1        0.1549
     28 C         140.3547  139.4705  156.7183 C.ar    1  UNL1        0.0503
     29 C         141.3530  138.7716  157.5929 C.ar    1  UNL1        0.0144
     30 C         141.9464  137.4646  157.1575 C.ar    1  UNL1       -0.0002
     31 C         141.5415  136.8565  155.8474 C.ar    1  UNL1        0.0182
     32 C         140.5431  137.5555  154.9728 C.ar    1  UNL1       -0.0002
     33 C         139.9498  138.8625  155.4082 C.ar    1  UNL1        0.0144
     34 C         142.1348  135.5495  155.4119 C.3     1  UNL1        0.2827
     35 O         140.7738  134.9199  155.4473 O.3     1  UNL1       -0.3692
     36 H         140.8422  133.9873  155.1894 H       1  UNL1        0.2112
     37 C         142.7282  134.2425  154.9764 C.3     1  UNL1        0.4311
     38 F         143.3215  132.9355  154.5409 F       1  UNL1       -0.1669
     39 F         142.3917  133.6453  156.3106 F       1  UNL1       -0.1669
     40 F         142.9681  134.4985  154.1631 F       1  UNL1       -0.1669
     41 C         143.4958  136.1791  155.3766 C.3     1  UNL1        0.4311
     42 F         144.8568  136.8088  155.3413 F       1  UNL1       -0.1669
     43 F         143.3429  136.7288  154.6991 F       1  UNL1       -0.1669
     44 F         144.2404  135.4965  156.4855 F       1  UNL1       -0.1669
@<TRIPOS>BOND
     1    11    12    1
     2    12     8    1
     3     8     9    2
     4     8    10    2
     5     8     2    1
     6     2     3   ar
     7     3     4   ar
     8     4     5   ar
     9     5     1    1
    10     1    13    1
    11    13    14   am
    12    14    15    2
    13    14    17    1
    14    17    18    1
    15    18    19   ar
    16    19    20   ar
    17    20    21   ar
    18    21    22   ar
    19    22    23   ar
    20     1    24    1
    21    24    25    2
    22    24    26   am
    23    26    28    1
    24    28    29   ar
    25    29    30   ar
    26    30    31   ar
    27    31    34    1
    28    34    35    1
    29    34    37    1
    30    37    38    1
    31    37    39    1
    32    37    40    1
    33    34    41    1
    34    41    42    1
    35    41    43    1
    36    41    44    1
    37    31    32   ar
    38    32    33   ar
    39     5     6   ar
    40     6     7   ar
    41     7     2   ar
    42    23    18   ar
    43    33    28   ar
    44    13    16    1
    45    26    27    1
    46    35    36    1
@<TRIPOS>MOLECULE
*****
 44 46 0 0 0
SMALL
GASTEIGER

@<TRIPOS>ATOM
      1 C         141.6567  137.5801  156.4094 C.3     1  UNL1        0.1895
      2 C         143.4298  133.4830  155.8439 C.ar    1  UNL1        0.1247
      3 C         142.6163  134.1059  154.7483 C.ar    1  UNL1        0.0212
      4 C         142.0253  135.4716  154.9369 C.ar    1  UNL1        0.0182
      5 C         142.2477  136.2144  156.2209 C.ar    1  UNL1        0.0859
      6 N         143.0611  135.5914  157.3164 N.ar    1  UNL1       -0.2447
      7 C         143.6522  134.2257  157.1279 C.ar    1  UNL1        0.1168
      8 S         144.0208  132.1173  155.6553 S.O2    1  UNL1        0.0101
      9 O         144.6801  132.2171  156.9989 O.2     1  UNL1       -0.1686
     10 O         143.3614  132.0174  154.3117 O.2     1  UNL1       -0.1686
     11 C         143.8451  129.5365  155.8979 C.3     1  UNL1        0.0276
     12 C         144.6118  130.7516  155.4668 C.3     1  UNL1        0.1560
     13 N         140.7683  138.1653  155.3520 N.am    1  UNL1       -0.2935
     14 C         139.3097  137.8166  155.3205 C.2     1  UNL1        0.2275
     15 O         138.7396  136.8826  156.3464 O.2     1  UNL1       -0.2747
     16 H         141.1425  138.7784  154.6786 H       1  UNL1        0.1502
     17 C         138.4213  138.4019  154.2630 C.3     1  UNL1        0.1113
     18 C         137.3143  139.3382  154.6474 C.ar    1  UNL1       -0.0131
     19 C         137.6237  140.5922  155.4104 C.ar    1  UNL1       -0.0038
     20 C         136.5167  141.5285  155.7948 C.ar    1  UNL1       -0.0003
     21 C         135.1004  141.2110  155.4163 C.ar    1  UNL1       -0.0000
     22 C         134.7911  139.9572  154.6533 C.ar    1  UNL1       -0.0003
     23 C         135.8981  139.0208  154.2689 C.ar    1  UNL1       -0.0038
     24 C         141.9541  138.3606  157.6553 C.2     1  UNL1        0.2499
     25 O         140.8374  138.7644  158.5718 O.2     1  UNL1       -0.2726
     26 N         143.3682  138.7372  157.9848 N.am    1  UNL1       -0.2823
     27 H         144.1011  138.4721  157.3833 H       1  UNL1        0.1549
     28 C         143.6655  139.5177  159.2308 C.ar    1  UNL1        0.0503
     29 C         143.8056  138.8080  160.5448 C.ar    1  UNL1        0.0144
     30 C         144.1029  139.5886  161.7909 C.ar    1  UNL1       -0.0002
     31 C         144.2602  141.0787  161.7227 C.ar    1  UNL1        0.0182
     32 C         144.1201  141.7884  160.4086 C.ar    1  UNL1       -0.0002
     33 C         143.8228  141.0079  159.1627 C.ar    1  UNL1        0.0144
     34 C         144.5576  141.8592  162.9686 C.3     1  UNL1        0.2827
     35 O         145.9554  142.1030  162.4824 O.3     1  UNL1       -0.3692
     36 H         146.4380  142.6314  163.1372 H       1  UNL1        0.2112
     37 C         144.8549  142.6398  164.2146 C.3     1  UNL1        0.4311
     38 F         145.1523  143.4203  165.4606 F       1  UNL1       -0.1669
     39 F         144.1432  143.8284  163.6398 F       1  UNL1       -0.1669
     40 F         145.2935  141.9992  164.6411 F       1  UNL1       -0.1669
     41 C         143.1597  141.6155  163.4549 C.3     1  UNL1        0.4311
     42 F         141.7617  141.3718  163.9412 F       1  UNL1       -0.1669
     43 F         143.3727  141.0961  164.1400 F       1  UNL1       -0.1669
     44 F         142.3021  142.3875  162.4963 F       1  UNL1       -0.1669
@<TRIPOS>BOND
     1    11    12    1
     2    12     8    1
     3     8     9    2
     4     8    10    2
     5     8     2    1
     6     2     3   ar
     7     3     4   ar
     8     4     5   ar
     9     5     1    1
    10     1    13    1
    11    13    14   am
    12    14    15    2
    13    14    17    1
    14    17    18    1
    15    18    19   ar
    16    19    20   ar
    17    20    21   ar
    18    21    22   ar
    19    22    23   ar
    20     1    24    1
    21    24    25    2
    22    24    26   am
    23    26    28    1
    24    28    29   ar
    25    29    30   ar
    26    30    31   ar
    27    31    34    1
    28    34    35    1
    29    34    37    1
    30    37    38    1
    31    37    39    1
    32    37    40    1
    33    34    41    1
    34    41    42    1
    35    41    43    1
    36    41    44    1
    37    31    32   ar
    38    32    33   ar
    39     5     6   ar
    40     6     7   ar
    41     7     2   ar
    42    23    18   ar
    43    33    28   ar
    44    13    16    1
    45    26    27    1
    46    35    36    1
@<TRIPOS>MOLECULE
*****
 44 46 0 0 0
SMALL
GASTEIGER

@<TRIPOS>ATOM
      1 C         141.3272  142.0180  160.4389 C.3     1  UNL1        0.1895
      2 C         142.0458  138.5513  157.6612 C.ar    1  UNL1        0.1247
      3 C         141.6989  139.8998  157.1035 C.ar    1  UNL1        0.0212
      4 C         141.4593  141.0554  158.0294 C.ar    1  UNL1        0.0182
      5 C         141.5668  140.8625  159.5130 C.ar    1  UNL1        0.0859
      6 N         141.9137  139.5140  160.0707 N.ar    1  UNL1       -0.2447
      7 C         142.1533  138.3584  159.1448 C.ar    1  UNL1        0.1168
      8 S         142.2854  137.3957  156.7353 S.O2    1  UNL1        0.0101
      9 O         140.8307  137.0367  156.8071 O.2     1  UNL1       -0.1686
     10 O         143.7400  137.7547  156.6636 O.2     1  UNL1       -0.1686
     11 C         141.3927  135.3285  155.4393 C.3     1  UNL1        0.0276
     12 C         142.5249  136.2401  155.8095 C.3     1  UNL1        0.1560
     13 N         141.4304  143.4238  159.9261 N.am    1  UNL1       -0.2935
     14 C         140.2169  144.1121  159.3750 C.2     1  UNL1        0.2275
     15 O         138.9002  143.3947  159.3367 O.2     1  UNL1       -0.2747
     16 H         142.2946  143.8948  159.9512 H       1  UNL1        0.1502
     17 C         140.3202  145.5180  158.8622 C.3     1  UNL1        0.1113
     18 C         140.5085  145.7694  157.3954 C.ar    1  UNL1       -0.0131
     19 C         141.5911  145.0522  156.6446 C.ar    1  UNL1       -0.0038
     20 C         141.7795  145.3036  155.1778 C.ar    1  UNL1       -0.0003
     21 C         140.8853  146.2721  154.4619 C.ar    1  UNL1       -0.0000
     22 C         139.8027  146.9892  155.2128 C.ar    1  UNL1       -0.0003
     23 C         139.6144  146.7378  156.6795 C.ar    1  UNL1       -0.0038
     24 C         140.9845  141.7678  161.8776 C.2     1  UNL1        0.2499
     25 O         139.6104  142.0868  162.3877 O.2     1  UNL1       -0.2726
     26 N         142.0158  141.1986  162.8062 N.am    1  UNL1       -0.2823
     27 H         142.9176  140.9892  162.4714 H       1  UNL1        0.1549
     28 C         141.6730  140.9483  164.2450 C.ar    1  UNL1        0.0503
     29 C         141.6746  142.0841  165.2248 C.ar    1  UNL1        0.0144
     30 C         141.3318  141.8338  166.6635 C.ar    1  UNL1       -0.0002
     31 C         140.9874  140.4479  167.1224 C.ar    1  UNL1        0.0182
     32 C         140.9859  139.3121  166.1425 C.ar    1  UNL1       -0.0002
     33 C         141.3287  139.5624  164.7038 C.ar    1  UNL1        0.0144
     34 C         140.6447  140.1976  168.5611 C.3     1  UNL1        0.2827
     35 O         139.2865  139.7094  168.1525 O.3     1  UNL1       -0.3692
     36 H         138.7847  139.4515  168.9416 H       1  UNL1        0.2112
     37 C         140.3019  139.9474  169.9997 C.3     1  UNL1        0.4311
     38 F         139.9591  139.6971  171.4385 F       1  UNL1       -0.1669
     39 F         139.2367  141.0011  169.9292 F       1  UNL1       -0.1669
     40 F         140.9015  139.3117  170.1446 F       1  UNL1       -0.1669
     41 C         142.0028  140.6859  168.9696 C.3     1  UNL1        0.4311
     42 F         143.3611  141.1741  169.3781 F       1  UNL1       -0.1669
     43 F         141.7371  141.4425  169.3455 F       1  UNL1       -0.1669
     44 F         142.9335  139.6094  168.4948 F       1  UNL1       -0.1669
@<TRIPOS>BOND
     1    11    12    1
     2    12     8    1
     3     8     9    2
     4     8    10    2
     5     8     2    1
     6     2     3   ar
     7     3     4   ar
     8     4     5   ar
     9     5     1    1
    10     1    13    1
    11    13    14   am
    12    14    15    2
    13    14    17    1
    14    17    18    1
    15    18    19   ar
    16    19    20   ar
    17    20    21   ar
    18    21    22   ar
    19    22    23   ar
    20     1    24    1
    21    24    25    2
    22    24    26   am
    23    26    28    1
    24    28    29   ar
    25    29    30   ar
    26    30    31   ar
    27    31    34    1
    28    34    35    1
    29    34    37    1
    30    37    38    1
    31    37    39    1
    32    37    40    1
    33    34    41    1
    34    41    42    1
    35    41    43    1
    36    41    44    1
    37    31    32   ar
    38    32    33   ar
    39     5     6   ar
    40     6     7   ar
    41     7     2   ar
    42    23    18   ar
    43    33    28   ar
    44    13    16    1
    45    26    27    1
    46    35    36    1
@<TRIPOS>MOLECULE
*****
 44 46 0 0 0
SMALL
GASTEIGER

@<TRIPOS>ATOM
      1 C         142.7196  137.9181  156.3953 C.3     1  UNL1        0.1895
      2 C         142.1994  133.5151  155.6253 C.ar    1  UNL1        0.1247
      3 C         143.4307  134.0144  156.3212 C.ar    1  UNL1        0.0212
      4 C         143.6041  135.4821  156.5779 C.ar    1  UNL1        0.0182
      5 C         142.5462  136.4504  156.1386 C.ar    1  UNL1        0.0859
      6 N         141.3148  135.9511  155.4427 N.ar    1  UNL1       -0.2447
      7 C         141.1414  134.4834  155.1860 C.ar    1  UNL1        0.1168
      8 S         142.0259  132.0474  155.3686 S.O2    1  UNL1        0.0101
      9 O         142.4273  131.7525  156.7835 O.2     1  UNL1       -0.1686
     10 O         141.6246  132.3423  153.9537 O.2     1  UNL1       -0.1686
     11 C         142.5939  129.5793  155.9482 C.3     1  UNL1        0.0276
     12 C         141.8525  130.5797  155.1119 C.3     1  UNL1        0.1560
     13 N         142.9831  138.8533  155.2526 N.am    1  UNL1       -0.2935
     14 C         144.3919  139.2291  154.9006 C.2     1  UNL1        0.2275
     15 O         145.5373  138.6696  155.6913 O.2     1  UNL1       -0.2747
     16 H         142.2314  139.2205  154.7337 H       1  UNL1        0.1502
     17 C         144.6554  140.1644  153.7578 C.3     1  UNL1        0.1113
     18 C         145.8247  141.1025  153.8108 C.ar    1  UNL1       -0.0131
     19 C         145.9344  142.1021  154.9238 C.ar    1  UNL1       -0.0038
     20 C         147.1037  143.0402  154.9768 C.ar    1  UNL1       -0.0003
     21 C         148.1632  142.9788  153.9167 C.ar    1  UNL1       -0.0000
     22 C         148.0534  141.9792  152.8037 C.ar    1  UNL1       -0.0003
     23 C         146.8841  141.0411  152.7507 C.ar    1  UNL1       -0.0038
     24 C         142.6294  138.4505  157.7947 C.2     1  UNL1        0.2499
     25 O         141.3534  138.3087  158.5704 O.2     1  UNL1       -0.2726
     26 N         143.8153  139.1247  158.4185 N.am    1  UNL1       -0.2823
     27 H         144.6528  139.2178  157.9094 H       1  UNL1        0.1549
     28 C         143.7251  139.6571  159.8180 C.ar    1  UNL1        0.0503
     29 C         143.9909  138.7513  160.9836 C.ar    1  UNL1        0.0144
     30 C         143.9007  139.2838  162.3831 C.ar    1  UNL1       -0.0002
     31 C         143.5447  140.7220  162.6168 C.ar    1  UNL1        0.0182
     32 C         143.2789  141.6279  161.4511 C.ar    1  UNL1       -0.0002
     33 C         143.3691  141.0954  160.0517 C.ar    1  UNL1        0.0144
     34 C         143.4545  141.2545  164.0162 C.3     1  UNL1        0.2827
     35 O         141.9724  141.0243  164.0083 O.3     1  UNL1       -0.3692
     36 H         141.5979  141.2993  164.8598 H       1  UNL1        0.2112
     37 C         143.3644  141.7869  165.4156 C.3     1  UNL1        0.4311
     38 F         143.2742  142.3194  166.8151 F       1  UNL1       -0.1669
     39 F         142.8039  143.0749  164.8894 F       1  UNL1       -0.1669
     40 F         143.6864  141.0703  165.8247 F       1  UNL1       -0.1669
     41 C         144.9367  141.4847  164.0242 C.3     1  UNL1        0.4311
     42 F         146.4190  141.7149  164.0321 F       1  UNL1       -0.1669
     43 F         145.1711  140.6705  164.2823 F       1  UNL1       -0.1669
     44 F         145.0841  142.9158  163.5995 F       1  UNL1       -0.1669
@<TRIPOS>BOND
     1    11    12    1
     2    12     8    1
     3     8     9    2
     4     8    10    2
     5     8     2    1
     6     2     3   ar
     7     3     4   ar
     8     4     5   ar
     9     5     1    1
    10     1    13    1
    11    13    14   am
    12    14    15    2
    13    14    17    1
    14    17    18    1
    15    18    19   ar
    16    19    20   ar
    17    20    21   ar
    18    21    22   ar
    19    22    23   ar
    20     1    24    1
    21    24    25    2
    22    24    26   am
    23    26    28    1
    24    28    29   ar
    25    29    30   ar
    26    30    31   ar
    27    31    34    1
    28    34    35    1
    29    34    37    1
    30    37    38    1
    31    37    39    1
    32    37    40    1
    33    34    41    1
    34    41    42    1
    35    41    43    1
    36    41    44    1
    37    31    32   ar
    38    32    33   ar
    39     5     6   ar
    40     6     7   ar
    41     7     2   ar
    42    23    18   ar
    43    33    28   ar
    44    13    16    1
    45    26    27    1
    46    35    36    1
@<TRIPOS>MOLECULE
*****
 44 46 0 0 0
SMALL
GASTEIGER

@<TRIPOS>ATOM
      1 C         139.9975  146.1067  155.6246 C.3     1  UNL1        0.1895
      2 C         139.2237  150.4295  154.6423 C.ar    1  UNL1        0.1247
      3 C         140.0950  149.6009  153.7455 C.ar    1  UNL1        0.0212
      4 C         140.3529  148.1600  154.0729 C.ar    1  UNL1        0.0182
      5 C         139.7396  147.5476  155.2971 C.ar    1  UNL1        0.0859
      6 N         138.8683  148.3762  156.1939 N.ar    1  UNL1       -0.2447
      7 C         138.6104  149.8171  155.8665 C.ar    1  UNL1        0.1168
      8 S         138.9658  151.8704  154.3149 S.O2    1  UNL1        0.0101
      9 O         139.0826  152.2216  155.7685 O.2     1  UNL1       -0.1686
     10 O         138.8490  151.5192  152.8612 O.2     1  UNL1       -0.1686
     11 C         138.1008  154.2174  155.0172 C.3     1  UNL1        0.0276
     12 C         138.7079  153.3113  153.9874 C.3     1  UNL1        0.1560
     13 N         139.6596  145.0388  154.6269 N.am    1  UNL1       -0.2935
     14 C         138.3200  144.3655  154.6737 C.2     1  UNL1        0.2275
     15 O         137.3183  144.7602  155.7181 O.2     1  UNL1       -0.2747
     16 H         140.3170  144.7797  153.9414 H       1  UNL1        0.1502
     17 C         137.9821  143.2975  153.6760 C.3     1  UNL1        0.1113
     18 C         136.8878  142.3149  153.9708 C.ar    1  UNL1       -0.0131
     19 C         135.6056  142.3647  153.1939 C.ar    1  UNL1       -0.0038
     20 C         134.5114  141.3821  153.4887 C.ar    1  UNL1       -0.0003
     21 C         134.6993  140.3496  154.5606 C.ar    1  UNL1       -0.0000
     22 C         135.9814  140.2998  155.3375 C.ar    1  UNL1       -0.0003
     23 C         137.0757  141.2824  155.0426 C.ar    1  UNL1       -0.0038
     24 C         140.5933  145.7337  156.9496 C.2     1  UNL1        0.2499
     25 O         141.9849  146.1732  157.2966 O.2     1  UNL1       -0.2726
     26 N         139.7976  144.9212  157.9277 N.am    1  UNL1       -0.2823
     27 H         138.8843  144.6327  157.7000 H       1  UNL1        0.1549
     28 C         140.3935  144.5482  159.2528 C.ar    1  UNL1        0.0503
     29 C         140.3164  145.5046  160.4057 C.ar    1  UNL1        0.0144
     30 C         140.9123  145.1316  161.7308 C.ar    1  UNL1       -0.0002
     31 C         141.5853  143.8021  161.9029 C.ar    1  UNL1        0.0182
     32 C         141.6624  142.8457  160.7499 C.ar    1  UNL1       -0.0002
     33 C         141.0665  143.2187  159.4249 C.ar    1  UNL1        0.0144
     34 C         142.1812  143.4291  163.2280 C.3     1  UNL1        0.2827
     35 O         141.1075  142.3996  163.4210 O.3     1  UNL1       -0.3692
     36 H         141.2394  141.9503  164.2704 H       1  UNL1        0.2112
     37 C         142.7771  143.0561  164.5530 C.3     1  UNL1        0.4311
     38 F         143.3731  142.6830  165.8780 F       1  UNL1       -0.1669
     39 F         141.5157  143.4861  165.2413 F       1  UNL1       -0.1669
     40 F         143.5594  142.7772  164.2449 F       1  UNL1       -0.1669
     41 C         143.2549  144.4586  163.0349 C.3     1  UNL1        0.4311
     42 F         144.3286  145.4882  162.8419 F       1  UNL1       -0.1669
     43 F         143.6796  144.0492  162.3743 F       1  UNL1       -0.1669
     44 F         142.9395  145.5084  164.0590 F       1  UNL1       -0.1669
@<TRIPOS>BOND
     1    11    12    1
     2    12     8    1
     3     8     9    2
     4     8    10    2
     5     8     2    1
     6     2     3   ar
     7     3     4   ar
     8     4     5   ar
     9     5     1    1
    10     1    13    1
    11    13    14   am
    12    14    15    2
    13    14    17    1
    14    17    18    1
    15    18    19   ar
    16    19    20   ar
    17    20    21   ar
    18    21    22   ar
    19    22    23   ar
    20     1    24    1
    21    24    25    2
    22    24    26   am
    23    26    28    1
    24    28    29   ar
    25    29    30   ar
    26    30    31   ar
    27    31    34    1
    28    34    35    1
    29    34    37    1
    30    37    38    1
    31    37    39    1
    32    37    40    1
    33    34    41    1
    34    41    42    1
    35    41    43    1
    36    41    44    1
    37    31    32   ar
    38    32    33   ar
    39     5     6   ar
    40     6     7   ar
    41     7     2   ar
    42    23    18   ar
    43    33    28   ar
    44    13    16    1
    45    26    27    1
    46    35    36    1
