@<TRIPOS>MOLECULE
*****
 37 38 0 0 0
SMALL
GASTEIGER

@<TRIPOS>ATOM
      1 C         142.1763  137.9926  159.3077 C.2     1  UNL1        0.2483
      2 O         142.9231  137.3150  160.4182 O.2     1  UNL1       -0.2726
      3 N         140.9104  138.7412  159.6028 N.am    1  UNL1       -0.2823
      4 H         140.4203  139.1860  158.8739 H       1  UNL1        0.1549
      5 C         140.3912  138.8122  161.0083 C.ar    1  UNL1        0.0503
      6 C         141.0374  139.7325  162.0009 C.ar    1  UNL1        0.0144
      7 C         140.5182  139.8035  163.4064 C.ar    1  UNL1       -0.0002
      8 C         139.3528  138.9541  163.8192 C.ar    1  UNL1        0.0182
      9 C         138.7066  138.0337  162.8266 C.ar    1  UNL1       -0.0002
     10 C         139.2258  137.9628  161.4211 C.ar    1  UNL1        0.0144
     11 C         138.8336  139.0250  165.2248 C.3     1  UNL1        0.2827
     12 O         139.3724  137.6511  165.4931 O.3     1  UNL1       -0.3692
     13 H         138.6395  137.0164  165.5220 H       1  UNL1        0.2112
     14 C         138.3145  139.0959  166.6302 C.3     1  UNL1        0.4311
     15 F         137.7953  139.1669  168.0358 F       1  UNL1       -0.1669
     16 F         139.7154  139.2649  167.1392 F       1  UNL1       -0.1669
     17 F         137.4561  139.0020  166.4331 F       1  UNL1       -0.1669
     18 C         138.2949  140.3989  164.9564 C.3     1  UNL1        0.4311
     19 F         137.7562  141.7730  164.6881 F       1  UNL1       -0.1669
     20 F         139.1376  141.2936  165.8165 F       1  UNL1       -0.1669
     21 F         137.6684  140.1583  164.3785 F       1  UNL1       -0.1669
     22 C         142.6955  137.9217  157.9022 C.3     1  UNL1        0.1719
     23 C         142.3806  136.7313  157.0456 C.ar    1  UNL1        0.0044
     24 C         141.2723  136.8049  156.0374 C.ar    1  UNL1       -0.0009
     25 C         140.9574  135.6146  155.1808 C.ar    1  UNL1        0.0181
     26 C         141.7508  134.3506  155.3323 C.ar    1  UNL1        0.1057
     27 C         142.8591  134.2770  156.3404 C.ar    1  UNL1        0.0181
     28 C         143.1740  135.4674  157.1970 C.ar    1  UNL1       -0.0009
     29 S         141.4359  133.1602  154.4756 S.O2    1  UNL1        0.0104
     30 C         141.1210  131.9699  153.6190 C.3     1  UNL1        0.1816
     31 O         141.7568  132.2494  155.6234 O.2     1  UNL1       -0.1686
     32 O         141.1151  134.0711  153.3279 O.2     1  UNL1       -0.1686
     33 C         143.7065  141.4231  156.3312 C.3     1  UNL1        0.0946
     34 C         142.8724  140.3036  156.8801 C.2     1  UNL1        0.2235
     35 O         141.3812  140.4468  156.9556 O.2     1  UNL1       -0.2751
     36 N         143.5296  139.0411  157.3534 N.am    1  UNL1       -0.2950
     37 H         144.5083  138.9471  157.3038 H       1  UNL1        0.1501
@<TRIPOS>BOND
     1    33    34    1
     2    34    35    2
     3    34    36   am
     4    36    22    1
     5    22     1    1
     6     1     2    2
     7     1     3   am
     8     3     5    1
     9     5     6   ar
    10     6     7   ar
    11     7     8   ar
    12     8    11    1
    13    11    12    1
    14    11    14    1
    15    14    15    1
    16    14    16    1
    17    14    17    1
    18    11    18    1
    19    18    19    1
    20    18    20    1
    21    18    21    1
    22     8     9   ar
    23     9    10   ar
    24    22    23    1
    25    23    24   ar
    26    24    25   ar
    27    25    26   ar
    28    26    29    1
    29    29    30    1
    30    29    31    2
    31    29    32    2
    32    26    27   ar
    33    27    28   ar
    34    10     5   ar
    35    28    23   ar
    36    36    37    1
    37     3     4    1
    38    12    13    1
@<TRIPOS>MOLECULE
*****
 37 38 0 0 0
SMALL
GASTEIGER

@<TRIPOS>ATOM
      1 C         141.8219  138.2284  158.8446 C.2     1  UNL1        0.2483
      2 O         142.6648  137.5713  159.8971 O.2     1  UNL1       -0.2726
      3 N         140.5489  138.9225  159.2285 N.am    1  UNL1       -0.2823
      4 H         139.9957  139.3538  158.5377 H       1  UNL1        0.1549
      5 C         140.1186  138.9596  160.6651 C.ar    1  UNL1        0.0503
      6 C         139.0345  138.0419  161.1472 C.ar    1  UNL1        0.0144
      7 C         138.6043  138.0790  162.5837 C.ar    1  UNL1       -0.0002
      8 C         139.2583  139.0337  163.5381 C.ar    1  UNL1        0.0182
      9 C         140.3424  139.9513  163.0560 C.ar    1  UNL1       -0.0002
     10 C         140.7726  139.9143  161.6195 C.ar    1  UNL1        0.0144
     11 C         138.8280  139.0707  164.9746 C.3     1  UNL1        0.2827
     12 O         139.3952  137.6974  165.1798 O.3     1  UNL1       -0.3692
     13 H         138.6715  137.0545  165.2414 H       1  UNL1        0.2112
     14 C         138.3978  139.1077  166.4111 C.3     1  UNL1        0.4311
     15 F         137.9676  139.1447  167.8476 F       1  UNL1       -0.1669
     16 F         139.8338  139.1738  166.8394 F       1  UNL1       -0.1669
     17 F         137.5252  139.0716  166.2634 F       1  UNL1       -0.1669
     18 C         138.2608  140.4441  164.7694 C.3     1  UNL1        0.4311
     19 F         137.6936  141.8175  164.5642 F       1  UNL1       -0.1669
     20 F         139.1398  141.3282  165.6036 F       1  UNL1       -0.1669
     21 F         137.6062  140.2097  164.2208 F       1  UNL1       -0.1669
     22 C         142.2522  138.1914  157.4080 C.3     1  UNL1        0.1719
     23 C         143.3659  139.0781  156.9356 C.ar    1  UNL1        0.0044
     24 C         143.7752  140.2679  157.7522 C.ar    1  UNL1       -0.0009
     25 C         144.8889  141.1546  157.2798 C.ar    1  UNL1        0.0181
     26 C         145.5935  140.8515  155.9907 C.ar    1  UNL1        0.1057
     27 C         145.1843  139.6617  155.1740 C.ar    1  UNL1        0.0181
     28 C         144.0705  138.7750  155.6465 C.ar    1  UNL1       -0.0009
     29 S         146.7073  141.7382  155.5182 S.O2    1  UNL1        0.0104
     30 C         147.8211  142.6249  155.0458 C.3     1  UNL1        0.1816
     31 O         146.5809  141.1622  154.1390 O.2     1  UNL1       -0.1686
     32 O         146.8337  142.3142  156.8974 O.2     1  UNL1       -0.1686
     33 C         141.3325  134.9171  155.3628 C.3     1  UNL1        0.0946
     34 C         142.0161  135.8408  156.3269 C.2     1  UNL1        0.2235
     35 O         143.1472  135.3377  157.1739 O.2     1  UNL1       -0.2751
     36 N         141.5686  137.2677  156.4440 N.am    1  UNL1       -0.2950
     37 H         140.8262  137.5979  155.8881 H       1  UNL1        0.1501
@<TRIPOS>BOND
     1    33    34    1
     2    34    35    2
     3    34    36   am
     4    36    22    1
     5    22     1    1
     6     1     2    2
     7     1     3   am
     8     3     5    1
     9     5     6   ar
    10     6     7   ar
    11     7     8   ar
    12     8    11    1
    13    11    12    1
    14    11    14    1
    15    14    15    1
    16    14    16    1
    17    14    17    1
    18    11    18    1
    19    18    19    1
    20    18    20    1
    21    18    21    1
    22     8     9   ar
    23     9    10   ar
    24    22    23    1
    25    23    24   ar
    26    24    25   ar
    27    25    26   ar
    28    26    29    1
    29    29    30    1
    30    29    31    2
    31    29    32    2
    32    26    27   ar
    33    27    28   ar
    34    10     5   ar
    35    28    23   ar
    36    36    37    1
    37     3     4    1
    38    12    13    1
@<TRIPOS>MOLECULE
*****
 37 38 0 0 0
SMALL
GASTEIGER

@<TRIPOS>ATOM
      1 C         142.4980  138.2021  157.9559 C.2     1  UNL1        0.2483
      2 O         141.2576  138.0393  158.7834 O.2     1  UNL1       -0.2726
      3 N         143.6805  138.9373  158.5137 N.am    1  UNL1       -0.2823
      4 H         144.4947  139.0442  157.9705 H       1  UNL1        0.1549
      5 C         143.6226  139.5098  159.8990 C.ar    1  UNL1        0.0503
      6 C         144.1181  138.7055  161.0641 C.ar    1  UNL1        0.0144
      7 C         144.0602  139.2780  162.4494 C.ar    1  UNL1       -0.0002
      8 C         143.5067  140.6547  162.6694 C.ar    1  UNL1        0.0182
      9 C         143.0112  141.4589  161.5043 C.ar    1  UNL1       -0.0002
     10 C         143.0692  140.8864  160.1191 C.ar    1  UNL1        0.0144
     11 C         143.4488  141.2271  164.0547 C.3     1  UNL1        0.2827
     12 O         141.9619  141.0309  164.0736 O.3     1  UNL1       -0.3692
     13 H         141.5212  141.8891  163.9720 H       1  UNL1        0.2112
     14 C         143.3909  141.7995  165.4400 C.3     1  UNL1        0.4311
     15 F         143.3329  142.3720  166.8253 F       1  UNL1       -0.1669
     16 F         143.1256  140.4312  165.9943 F       1  UNL1       -0.1669
     17 F         143.5422  142.6427  165.2148 F       1  UNL1       -0.1669
     18 C         144.9358  141.4233  164.0359 C.3     1  UNL1        0.4311
     19 F         146.4228  141.6195  164.0170 F       1  UNL1       -0.1669
     20 F         145.1317  142.6302  163.1670 F       1  UNL1       -0.1669
     21 F         145.1419  140.7371  164.5566 F       1  UNL1       -0.1669
     22 C         142.5560  137.6297  156.5706 C.3     1  UNL1        0.1719
     23 C         142.4448  136.1479  156.3662 C.ar    1  UNL1        0.0044
     24 C         143.2941  135.2133  157.1757 C.ar    1  UNL1       -0.0009
     25 C         143.1829  133.7315  156.9712 C.ar    1  UNL1        0.0181
     26 C         142.2225  133.1842  155.9572 C.ar    1  UNL1        0.1057
     27 C         141.3733  134.1187  155.1477 C.ar    1  UNL1        0.0181
     28 C         141.4845  135.6006  155.3522 C.ar    1  UNL1       -0.0009
     29 S         142.1114  131.7024  155.7528 S.O2    1  UNL1        0.0104
     30 C         142.0003  130.2205  155.5483 C.3     1  UNL1        0.1816
     31 O         141.3769  131.9350  154.4658 O.2     1  UNL1       -0.1686
     32 O         142.8459  131.4697  157.0398 O.2     1  UNL1       -0.1686
     33 C         144.2690  139.8361  153.7515 C.3     1  UNL1        0.0946
     34 C         144.1000  138.9266  154.9323 C.2     1  UNL1        0.2235
     35 O         145.3059  138.4047  155.6557 O.2     1  UNL1       -0.2751
     36 N         142.7250  138.5391  155.3898 N.am    1  UNL1       -0.2950
     37 H         141.9335  138.8817  154.9150 H       1  UNL1        0.1501
@<TRIPOS>BOND
     1    33    34    1
     2    34    35    2
     3    34    36   am
     4    36    22    1
     5    22     1    1
     6     1     2    2
     7     1     3   am
     8     3     5    1
     9     5     6   ar
    10     6     7   ar
    11     7     8   ar
    12     8    11    1
    13    11    12    1
    14    11    14    1
    15    14    15    1
    16    14    16    1
    17    14    17    1
    18    11    18    1
    19    18    19    1
    20    18    20    1
    21    18    21    1
    22     8     9   ar
    23     9    10   ar
    24    22    23    1
    25    23    24   ar
    26    24    25   ar
    27    25    26   ar
    28    26    29    1
    29    29    30    1
    30    29    31    2
    31    29    32    2
    32    26    27   ar
    33    27    28   ar
    34    10     5   ar
    35    28    23   ar
    36    36    37    1
    37     3     4    1
    38    12    13    1
@<TRIPOS>MOLECULE
*****
 37 38 0 0 0
SMALL
GASTEIGER

@<TRIPOS>ATOM
      1 C         141.5503  138.5199  158.6419 C.2     1  UNL1        0.2483
      2 O         142.4748  137.9280  159.6641 O.2     1  UNL1       -0.2726
      3 N         140.2438  139.1194  159.0702 N.am    1  UNL1       -0.2823
      4 H         139.6370  139.5079  158.3992 H       1  UNL1        0.1549
      5 C         139.8616  139.1270  160.5207 C.ar    1  UNL1        0.0503
      6 C         138.9378  138.0746  161.0584 C.ar    1  UNL1        0.0144
      7 C         138.5558  138.0822  162.5089 C.ar    1  UNL1       -0.0002
      8 C         139.0975  139.1422  163.4216 C.ar    1  UNL1        0.0182
      9 C         140.0212  140.1945  162.8839 C.ar    1  UNL1       -0.0002
     10 C         140.4033  140.1869  161.4334 C.ar    1  UNL1        0.0144
     11 C         138.7153  139.1497  164.8722 C.3     1  UNL1        0.2827
     12 O         137.9080  140.3947  164.6529 O.3     1  UNL1       -0.3692
     13 H         138.3766  141.1549  165.0317 H       1  UNL1        0.2112
     14 C         138.3332  139.1573  166.3226 C.3     1  UNL1        0.4311
     15 F         137.9510  139.1649  167.7732 F       1  UNL1       -0.1669
     16 F         139.7413  139.5190  166.6917 F       1  UNL1       -0.1669
     17 F         137.4803  138.9459  166.2107 F       1  UNL1       -0.1669
     18 C         139.5227  137.9047  165.0914 C.3     1  UNL1        0.4311
     19 F         140.3300  136.6596  165.3107 F       1  UNL1       -0.1669
     20 F         138.5109  136.8892  165.5332 F       1  UNL1       -0.1669
     21 F         140.3098  138.2465  164.8724 F       1  UNL1       -0.1669
     22 C         141.9325  138.5123  157.1914 C.3     1  UNL1        0.1719
     23 C         142.0946  137.2099  156.4653 C.ar    1  UNL1        0.0044
     24 C         143.4471  136.5685  156.3684 C.ar    1  UNL1       -0.0009
     25 C         143.6092  135.2660  155.6423 C.ar    1  UNL1        0.0181
     26 C         142.4188  134.6049  155.0130 C.ar    1  UNL1        0.1057
     27 C         141.0663  135.2462  155.1099 C.ar    1  UNL1        0.0181
     28 C         140.9042  136.5488  155.8361 C.ar    1  UNL1       -0.0009
     29 S         142.5810  133.3024  154.2870 S.O2    1  UNL1        0.0104
     30 C         142.7431  131.9999  153.5609 C.3     1  UNL1        0.1816
     31 O         143.6841  132.9158  155.2269 O.2     1  UNL1       -0.1686
     32 O         141.4778  133.6891  153.3470 O.2     1  UNL1       -0.1686
     33 C         143.6722  141.8353  155.8947 C.3     1  UNL1        0.0946
     34 C         143.4522  140.5403  156.6190 C.2     1  UNL1        0.2235
     35 O         144.5320  139.9784  157.4955 O.2     1  UNL1       -0.2751
     36 N         142.1524  139.8073  156.4670 N.am    1  UNL1       -0.2950
     37 H         141.4437  140.1761  155.8917 H       1  UNL1        0.1501
@<TRIPOS>BOND
     1    33    34    1
     2    34    35    2
     3    34    36   am
     4    36    22    1
     5    22     1    1
     6     1     2    2
     7     1     3   am
     8     3     5    1
     9     5     6   ar
    10     6     7   ar
    11     7     8   ar
    12     8    11    1
    13    11    12    1
    14    11    14    1
    15    14    15    1
    16    14    16    1
    17    14    17    1
    18    11    18    1
    19    18    19    1
    20    18    20    1
    21    18    21    1
    22     8     9   ar
    23     9    10   ar
    24    22    23    1
    25    23    24   ar
    26    24    25   ar
    27    25    26   ar
    28    26    29    1
    29    29    30    1
    30    29    31    2
    31    29    32    2
    32    26    27   ar
    33    27    28   ar
    34    10     5   ar
    35    28    23   ar
    36    36    37    1
    37     3     4    1
    38    12    13    1
@<TRIPOS>MOLECULE
*****
 37 38 0 0 0
SMALL
GASTEIGER

@<TRIPOS>ATOM
      1 C         139.0217  141.9857  158.6765 C.2     1  UNL1        0.2483
      2 O         138.1075  142.8602  159.4824 O.2     1  UNL1       -0.2726
      3 N         139.6634  140.7868  159.3096 N.am    1  UNL1       -0.2823
      4 H         140.2634  140.2128  158.7806 H       1  UNL1        0.1549
      5 C         139.3909  140.4623  160.7485 C.ar    1  UNL1        0.0503
      6 C         140.1616  141.1556  161.8326 C.ar    1  UNL1        0.0144
      7 C         139.8891  140.8312  163.2715 C.ar    1  UNL1       -0.0002
      8 C         138.8459  139.8135  163.6263 C.ar    1  UNL1        0.0182
      9 C         138.0751  139.1202  162.5422 C.ar    1  UNL1       -0.0002
     10 C         138.3476  139.4446  161.1034 C.ar    1  UNL1        0.0144
     11 C         138.5734  139.4890  165.0653 C.3     1  UNL1        0.2827
     12 O         137.7067  140.7082  165.1760 O.3     1  UNL1       -0.3692
     13 H         138.1741  141.3925  165.6801 H       1  UNL1        0.2112
     14 C         138.3009  139.1647  166.5042 C.3     1  UNL1        0.4311
     15 F         138.0283  138.8403  167.9432 F       1  UNL1       -0.1669
     16 F         139.6156  139.7746  166.8907 F       1  UNL1       -0.1669
     17 F         137.5107  138.7838  166.3812 F       1  UNL1       -0.1669
     18 C         139.4401  138.2698  164.9546 C.3     1  UNL1        0.4311
     19 F         140.3068  137.0505  164.8439 F       1  UNL1       -0.1669
     20 F         138.4651  137.1298  164.9585 F       1  UNL1       -0.1669
     21 F         140.2180  138.6924  164.9281 F       1  UNL1       -0.1669
     22 C         139.2941  142.3101  157.2375 C.3     1  UNL1        0.1719
     23 C         139.2676  143.7358  156.7721 C.ar    1  UNL1        0.0044
     24 C         138.2698  144.1692  155.7394 C.ar    1  UNL1       -0.0009
     25 C         138.2433  145.5948  155.2739 C.ar    1  UNL1        0.0181
     26 C         139.2147  146.5872  155.8413 C.ar    1  UNL1        0.1057
     27 C         140.2124  146.1538  156.8740 C.ar    1  UNL1        0.0181
     28 C         140.2389  144.7281  157.3395 C.ar    1  UNL1       -0.0009
     29 S         139.1881  148.0129  155.3759 S.O2    1  UNL1        0.0104
     30 C         139.1616  149.4386  154.9104 C.3     1  UNL1        0.1816
     31 O         139.7192  147.5865  154.0394 O.2     1  UNL1       -0.1686
     32 O         138.6571  148.4393  156.7123 O.2     1  UNL1       -0.1686
     33 C         138.8107  139.1500  154.8859 C.3     1  UNL1        0.0946
     34 C         138.5117  140.2514  155.8594 C.2     1  UNL1        0.2235
     35 O         137.1312  140.3953  156.4282 O.2     1  UNL1       -0.2751
     36 N         139.5931  141.2088  156.2641 N.am    1  UNL1       -0.2950
     37 H         140.4992  141.1143  155.8907 H       1  UNL1        0.1501
@<TRIPOS>BOND
     1    33    34    1
     2    34    35    2
     3    34    36   am
     4    36    22    1
     5    22     1    1
     6     1     2    2
     7     1     3   am
     8     3     5    1
     9     5     6   ar
    10     6     7   ar
    11     7     8   ar
    12     8    11    1
    13    11    12    1
    14    11    14    1
    15    14    15    1
    16    14    16    1
    17    14    17    1
    18    11    18    1
    19    18    19    1
    20    18    20    1
    21    18    21    1
    22     8     9   ar
    23     9    10   ar
    24    22    23    1
    25    23    24   ar
    26    24    25   ar
    27    25    26   ar
    28    26    29    1
    29    29    30    1
    30    29    31    2
    31    29    32    2
    32    26    27   ar
    33    27    28   ar
    34    10     5   ar
    35    28    23   ar
    36    36    37    1
    37     3     4    1
    38    12    13    1
@<TRIPOS>MOLECULE
*****
 37 38 0 0 0
SMALL
GASTEIGER

@<TRIPOS>ATOM
      1 C         142.7791  138.0022  157.2306 C.2     1  UNL1        0.2483
      2 O         143.9956  138.8376  156.9618 O.2     1  UNL1       -0.2726
      3 N         142.1411  138.0211  158.5880 N.am    1  UNL1       -0.2823
      4 H         141.3427  137.4728  158.7643 H       1  UNL1        0.1549
      5 C         142.7197  138.8755  159.6768 C.ar    1  UNL1        0.0503
      6 C         142.4064  140.3416  159.7261 C.ar    1  UNL1        0.0144
      7 C         142.9850  141.1958  160.8149 C.ar    1  UNL1       -0.0002
      8 C         143.8769  140.5841  161.8543 C.ar    1  UNL1        0.0182
      9 C         144.1901  139.1180  161.8049 C.ar    1  UNL1       -0.0002
     10 C         143.6116  138.2637  160.7162 C.ar    1  UNL1        0.0144
     11 C         144.4554  141.4384  162.9431 C.3     1  UNL1        0.2827
     12 O         145.1782  142.2582  161.9157 O.3     1  UNL1       -0.3692
     13 H         146.1227  142.0377  161.9322 H       1  UNL1        0.2112
     14 C         145.0340  142.2928  164.0318 C.3     1  UNL1        0.4311
     15 F         145.6127  143.1471  165.1205 F       1  UNL1       -0.1669
     16 F         143.8484  143.2074  163.9440 F       1  UNL1       -0.1669
     17 F         145.7706  141.8181  164.1615 F       1  UNL1       -0.1669
     18 C         143.7327  140.6187  163.9705 C.3     1  UNL1        0.4311
     19 F         143.0099  139.7989  164.9979 F       1  UNL1       -0.1669
     20 F         144.8069  139.7620  164.5725 F       1  UNL1       -0.1669
     21 F         142.9262  140.9572  163.8310 F       1  UNL1       -0.1669
     22 C         142.2005  137.1478  156.1418 C.3     1  UNL1        0.1719
     23 C         142.6675  135.7327  155.9707 C.ar    1  UNL1        0.0044
     24 C         143.4137  135.0501  157.0785 C.ar    1  UNL1       -0.0009
     25 C         143.8808  133.6350  156.9074 C.ar    1  UNL1        0.0181
     26 C         143.6017  132.9025  155.6285 C.ar    1  UNL1        0.1057
     27 C         142.8556  133.5852  154.5206 C.ar    1  UNL1        0.0181
     28 C         142.3885  135.0003  154.6918 C.ar    1  UNL1       -0.0009
     29 S         144.0688  131.4874  155.4574 S.O2    1  UNL1        0.0104
     30 C         144.5359  130.0723  155.2863 C.3     1  UNL1        0.1816
     31 O         142.8036  131.1587  154.7217 O.2     1  UNL1       -0.1686
     32 O         145.3340  131.8161  156.1930 O.2     1  UNL1       -0.1686
     33 C         138.7017  138.4480  154.7934 C.3     1  UNL1        0.0946
     34 C         139.7474  137.8872  155.7111 C.2     1  UNL1        0.2235
     35 O         139.3856  137.5050  157.1157 O.2     1  UNL1       -0.2751
     36 N         141.1548  137.7086  155.2241 N.am    1  UNL1       -0.2950
     37 H         141.3923  137.9595  154.3022 H       1  UNL1        0.1501
@<TRIPOS>BOND
     1    33    34    1
     2    34    35    2
     3    34    36   am
     4    36    22    1
     5    22     1    1
     6     1     2    2
     7     1     3   am
     8     3     5    1
     9     5     6   ar
    10     6     7   ar
    11     7     8   ar
    12     8    11    1
    13    11    12    1
    14    11    14    1
    15    14    15    1
    16    14    16    1
    17    14    17    1
    18    11    18    1
    19    18    19    1
    20    18    20    1
    21    18    21    1
    22     8     9   ar
    23     9    10   ar
    24    22    23    1
    25    23    24   ar
    26    24    25   ar
    27    25    26   ar
    28    26    29    1
    29    29    30    1
    30    29    31    2
    31    29    32    2
    32    26    27   ar
    33    27    28   ar
    34    10     5   ar
    35    28    23   ar
    36    36    37    1
    37     3     4    1
    38    12    13    1
@<TRIPOS>MOLECULE
*****
 37 38 0 0 0
SMALL
GASTEIGER

@<TRIPOS>ATOM
      1 C         142.4212  138.4203  158.5109 C.2     1  UNL1        0.2483
      2 O         143.6274  138.8058  159.3149 O.2     1  UNL1       -0.2726
      3 N         141.0678  138.3892  159.1569 N.am    1  UNL1       -0.2823
      4 H         140.2762  138.1362  158.6292 H       1  UNL1        0.1549
      5 C         140.9207  138.7435  160.6071 C.ar    1  UNL1        0.0503
      6 C         140.3013  140.0518  161.0004 C.ar    1  UNL1        0.0144
      7 C         140.1541  140.4061  162.4504 C.ar    1  UNL1       -0.0002
      8 C         140.6263  139.4521  163.5072 C.ar    1  UNL1        0.0182
      9 C         141.2457  138.1438  163.1140 C.ar    1  UNL1       -0.0002
     10 C         141.3929  137.7895  161.6639 C.ar    1  UNL1        0.0144
     11 C         140.4791  139.8064  164.9574 C.3     1  UNL1        0.2827
     12 O         141.4133  140.9648  164.7691 O.3     1  UNL1       -0.3692
     13 H         142.2727  140.7550  165.1670 H       1  UNL1        0.2112
     14 C         140.3320  140.1607  166.4075 C.3     1  UNL1        0.4311
     15 F         140.1848  140.5151  167.8576 F       1  UNL1       -0.1669
     16 F         141.7299  139.6823  166.6662 F       1  UNL1       -0.1669
     17 F         139.5021  140.4667  166.3602 F       1  UNL1       -0.1669
     18 C         139.5450  138.6480  165.1457 C.3     1  UNL1        0.4311
     19 F         138.6108  137.4896  165.3339 F       1  UNL1       -0.1669
     20 F         138.2767  139.0924  164.4792 F       1  UNL1       -0.1669
     21 F         140.1072  138.1269  165.5893 F       1  UNL1       -0.1669
     22 C         142.5684  138.0660  157.0607 C.3     1  UNL1        0.1719
     23 C         142.3660  136.6496  156.6105 C.ar    1  UNL1        0.0044
     24 C         141.3353  136.3342  155.5674 C.ar    1  UNL1       -0.0009
     25 C         141.1329  134.9178  155.1171 C.ar    1  UNL1        0.0181
     26 C         141.9613  133.8167  155.7100 C.ar    1  UNL1        0.1057
     27 C         142.9920  134.1321  156.7531 C.ar    1  UNL1        0.0181
     28 C         143.1944  135.5486  157.2033 C.ar    1  UNL1       -0.0009
     29 S         141.7589  132.4003  155.2597 S.O2    1  UNL1        0.0104
     30 C         141.5565  130.9839  154.8094 C.3     1  UNL1        0.1816
     31 O         142.2878  131.9070  156.5738 O.2     1  UNL1       -0.1686
     32 O         141.2300  132.8936  153.9456 O.2     1  UNL1       -0.1686
     33 C         144.5922  140.1521  154.3585 C.3     1  UNL1        0.0946
     34 C         144.2427  139.0900  155.3583 C.2     1  UNL1        0.2235
     35 O         145.2178  137.9897  155.6556 O.2     1  UNL1       -0.2751
     36 N         142.9180  139.1281  156.0609 N.am    1  UNL1       -0.2950
     37 H         142.2779  139.8503  155.8658 H       1  UNL1        0.1501
@<TRIPOS>BOND
     1    33    34    1
     2    34    35    2
     3    34    36   am
     4    36    22    1
     5    22     1    1
     6     1     2    2
     7     1     3   am
     8     3     5    1
     9     5     6   ar
    10     6     7   ar
    11     7     8   ar
    12     8    11    1
    13    11    12    1
    14    11    14    1
    15    14    15    1
    16    14    16    1
    17    14    17    1
    18    11    18    1
    19    18    19    1
    20    18    20    1
    21    18    21    1
    22     8     9   ar
    23     9    10   ar
    24    22    23    1
    25    23    24   ar
    26    24    25   ar
    27    25    26   ar
    28    26    29    1
    29    29    30    1
    30    29    31    2
    31    29    32    2
    32    26    27   ar
    33    27    28   ar
    34    10     5   ar
    35    28    23   ar
    36    36    37    1
    37     3     4    1
    38    12    13    1
@<TRIPOS>MOLECULE
*****
 37 38 0 0 0
SMALL
GASTEIGER

@<TRIPOS>ATOM
      1 C         141.3247  141.3945  161.7642 C.2     1  UNL1        0.2483
      2 O         142.6172  141.2543  162.5125 O.2     1  UNL1       -0.2726
      3 N         140.0194  141.2857  162.4950 N.am    1  UNL1       -0.2823
      4 H         139.1711  141.3777  162.0039 H       1  UNL1        0.1549
      5 C         140.0064  141.0369  163.9742 C.ar    1  UNL1        0.0503
      6 C         139.9065  142.1903  164.9280 C.ar    1  UNL1        0.0144
      7 C         139.8935  141.9414  166.4071 C.ar    1  UNL1       -0.0002
      8 C         139.9805  140.5391  166.9325 C.ar    1  UNL1        0.0182
      9 C         140.0804  139.3857  165.9787 C.ar    1  UNL1       -0.0002
     10 C         140.0933  139.6346  164.4996 C.ar    1  UNL1        0.0144
     11 C         139.9675  140.2902  168.4117 C.3     1  UNL1        0.2827
     12 O         138.7307  139.4552  168.2603 O.3     1  UNL1       -0.3692
     13 H         137.9644  139.9495  168.5910 H       1  UNL1        0.2112
     14 C         139.9545  140.0413  169.8908 C.3     1  UNL1        0.4311
     15 F         139.9415  139.7924  171.3700 F       1  UNL1       -0.1669
     16 F         138.6859  140.8324  170.0127 F       1  UNL1       -0.1669
     17 F         140.6971  139.5597  169.9258 F       1  UNL1       -0.1669
     18 C         141.2044  141.1252  168.5630 C.3     1  UNL1        0.4311
     19 F         142.4413  141.9602  168.7144 F       1  UNL1       -0.1669
     20 F         140.7275  142.3537  169.2797 F       1  UNL1       -0.1669
     21 F         141.7622  140.5653  168.1632 F       1  UNL1       -0.1669
     22 C         141.3377  141.6433  160.2850 C.3     1  UNL1        0.1719
     23 C         141.2858  140.4881  159.3296 C.ar    1  UNL1        0.0044
     24 C         142.4834  140.1546  158.4902 C.ar    1  UNL1       -0.0009
     25 C         142.4315  138.9994  157.5349 C.ar    1  UNL1        0.0181
     26 C         141.1819  138.1777  157.4188 C.ar    1  UNL1        0.1057
     27 C         139.9843  138.5112  158.2582 C.ar    1  UNL1        0.0181
     28 C         140.0363  139.6664  159.2136 C.ar    1  UNL1       -0.0009
     29 S         141.1300  137.0225  156.4634 S.O2    1  UNL1        0.0104
     30 C         141.0781  135.8673  155.5081 C.3     1  UNL1        0.1816
     31 O         142.3930  136.4739  157.0582 O.2     1  UNL1       -0.1686
     32 O         139.8670  137.5711  155.8687 O.2     1  UNL1       -0.1686
     33 C         140.2346  145.3059  159.2274 C.3     1  UNL1        0.0946
     34 C         140.1698  143.9018  159.7511 C.2     1  UNL1        0.2235
     35 O         138.8721  143.3521  160.2648 O.2     1  UNL1       -0.2751
     36 N         141.4026  143.0474  159.7612 N.am    1  UNL1       -0.2950
     37 H         142.2543  143.4082  159.4241 H       1  UNL1        0.1501
@<TRIPOS>BOND
     1    33    34    1
     2    34    35    2
     3    34    36   am
     4    36    22    1
     5    22     1    1
     6     1     2    2
     7     1     3   am
     8     3     5    1
     9     5     6   ar
    10     6     7   ar
    11     7     8   ar
    12     8    11    1
    13    11    12    1
    14    11    14    1
    15    14    15    1
    16    14    16    1
    17    14    17    1
    18    11    18    1
    19    18    19    1
    20    18    20    1
    21    18    21    1
    22     8     9   ar
    23     9    10   ar
    24    22    23    1
    25    23    24   ar
    26    24    25   ar
    27    25    26   ar
    28    26    29    1
    29    29    30    1
    30    29    31    2
    31    29    32    2
    32    26    27   ar
    33    27    28   ar
    34    10     5   ar
    35    28    23   ar
    36    36    37    1
    37     3     4    1
    38    12    13    1
@<TRIPOS>MOLECULE
*****
 37 38 0 0 0
SMALL
GASTEIGER

@<TRIPOS>ATOM
      1 C         140.2481  141.5965  162.3196 C.2     1  UNL1        0.2483
      2 O         139.1567  140.8336  163.0101 O.2     1  UNL1       -0.2726
      3 N         141.4031  142.1348  163.1109 N.am    1  UNL1       -0.2823
      4 H         142.1194  142.6355  162.6577 H       1  UNL1        0.1549
      5 C         141.4667  141.9104  164.5927 C.ar    1  UNL1        0.0503
      6 C         142.3726  140.8544  165.1531 C.ar    1  UNL1        0.0144
      7 C         142.4361  140.6300  166.6348 C.ar    1  UNL1       -0.0002
      8 C         141.5937  141.4615  167.5561 C.ar    1  UNL1        0.0182
      9 C         140.6878  142.5175  166.9957 C.ar    1  UNL1       -0.0002
     10 C         140.6242  142.7419  165.5140 C.ar    1  UNL1        0.0144
     11 C         141.6573  141.2370  169.0379 C.3     1  UNL1        0.2827
     12 O         143.0240  141.8542  169.0727 O.3     1  UNL1       -0.3692
     13 H         143.6897  141.1590  169.1927 H       1  UNL1        0.2112
     14 C         141.7209  141.0126  170.5196 C.3     1  UNL1        0.4311
     15 F         141.7845  140.7881  172.0014 F       1  UNL1       -0.1669
     16 F         141.7455  142.4956  170.7432 F       1  UNL1       -0.1669
     17 F         141.7111  140.1272  170.4952 F       1  UNL1       -0.1669
     18 C         140.2906  140.6199  169.0031 C.3     1  UNL1        0.4311
     19 F         138.9238  140.0027  168.9683 F       1  UNL1       -0.1669
     20 F         139.4293  141.6037  169.7382 F       1  UNL1       -0.1669
     21 F         140.5127  139.8910  168.5516 F       1  UNL1       -0.1669
     22 C         140.1845  141.8209  160.8378 C.3     1  UNL1        0.1719
     23 C         140.5622  140.7170  159.8952 C.ar    1  UNL1        0.0044
     24 C         139.6284  139.5633  159.6787 C.ar    1  UNL1       -0.0009
     25 C         140.0061  138.4594  158.7360 C.ar    1  UNL1        0.0181
     26 C         141.3177  138.5092  158.0098 C.ar    1  UNL1        0.1057
     27 C         142.2515  139.6629  158.2263 C.ar    1  UNL1        0.0181
     28 C         141.8738  140.7668  159.1690 C.ar    1  UNL1       -0.0009
     29 S         141.6954  137.4052  157.0671 S.O2    1  UNL1        0.0104
     30 C         142.0731  136.3013  156.1244 C.3     1  UNL1        0.1816
     31 O         143.1404  137.5981  157.4202 O.2     1  UNL1       -0.1686
     32 O         140.2504  137.2123  156.7140 O.2     1  UNL1       -0.1686
     33 C         140.2665  145.6255  159.7115 C.3     1  UNL1        0.0946
     34 C         140.7078  144.2971  160.2505 C.2     1  UNL1        0.2235
     35 O         142.1137  144.1163  160.7413 O.2     1  UNL1       -0.2751
     36 N         139.7433  143.1494  160.2988 N.am    1  UNL1       -0.2950
     37 H         138.8205  143.2680  159.9767 H       1  UNL1        0.1501
@<TRIPOS>BOND
     1    33    34    1
     2    34    35    2
     3    34    36   am
     4    36    22    1
     5    22     1    1
     6     1     2    2
     7     1     3   am
     8     3     5    1
     9     5     6   ar
    10     6     7   ar
    11     7     8   ar
    12     8    11    1
    13    11    12    1
    14    11    14    1
    15    14    15    1
    16    14    16    1
    17    14    17    1
    18    11    18    1
    19    18    19    1
    20    18    20    1
    21    18    21    1
    22     8     9   ar
    23     9    10   ar
    24    22    23    1
    25    23    24   ar
    26    24    25   ar
    27    25    26   ar
    28    26    29    1
    29    29    30    1
    30    29    31    2
    31    29    32    2
    32    26    27   ar
    33    27    28   ar
    34    10     5   ar
    35    28    23   ar
    36    36    37    1
    37     3     4    1
    38    12    13    1
