@<TRIPOS>MOLECULE
*****
 26 28 0 0 0
SMALL
GASTEIGER

@<TRIPOS>ATOM
      1 C         139.9796  144.9545  157.6183 C.ar    1  UNL1        0.0728
      2 C         139.9100  143.8678  156.5867 C.ar    1  UNL1        0.1034
      3 N         139.6458  144.2125  155.1510 N.ar    1  UNL1       -0.2422
      4 C         139.4512  145.6439  154.7469 C.ar    1  UNL1        0.0988
      5 C         139.5209  146.7305  155.7785 C.ar    1  UNL1        0.0193
      6 C         139.7850  146.3858  157.2142 C.ar    1  UNL1        0.0076
      7 C         139.3263  148.1619  155.3744 C.ar    1  UNL1        0.0015
      8 C         139.8740  148.6533  154.0673 C.ar    1  UNL1        0.0007
      9 C         139.6794  150.0847  153.6631 C.ar    1  UNL1        0.0103
     10 C         138.9372  151.0247  154.5661 C.ar    1  UNL1        0.0684
     11 C         138.3895  150.5333  155.8732 C.ar    1  UNL1        0.0103
     12 C         138.5841  149.1019  156.2773 C.ar    1  UNL1        0.0007
     13 C         138.7426  152.4560  154.1620 C.1     1  UNL1        0.1004
     14 N         138.5481  153.8874  153.7579 N.1     1  UNL1       -0.1908
     15 N         139.9546  145.6125  160.1316 N.am    1  UNL1       -0.2804
     16 C         140.2438  144.6098  159.0541 C.2     1  UNL1        0.2510
     17 O         140.7971  143.2624  159.4124 O.2     1  UNL1       -0.2698
     18 H         139.5915  146.4968  159.8964 H       1  UNL1        0.1552
     19 C         138.1897  144.4620  164.8815 C.3     1  UNL1        0.0311
     20 C         139.3363  144.6926  163.9423 C.ar    1  UNL1       -0.0209
     21 C         140.7471  144.5785  164.4389 C.ar    1  UNL1       -0.0084
     22 C         141.8937  144.8091  163.4997 C.ar    1  UNL1       -0.0209
     23 C         143.3046  144.6950  163.9964 C.3     1  UNL1        0.0311
     24 C         141.6296  145.1537  162.0640 C.ar    1  UNL1        0.0104
     25 C         140.2188  145.2678  161.5674 C.ar    1  UNL1        0.0499
     26 C         139.0722  145.0372  162.5066 C.ar    1  UNL1        0.0104
@<TRIPOS>BOND
     1    19    20    1
     2    20    21   ar
     3    21    22   ar
     4    22    23    1
     5    22    24   ar
     6    24    25   ar
     7    25    15    1
     8    15    16   am
     9    16    17    2
    10    16     1    1
    11     1     2   ar
    12     2     3   ar
    13     3     4   ar
    14     4     5   ar
    15     5     7    1
    16     7     8   ar
    17     8     9   ar
    18     9    10   ar
    19    10    13    1
    20    13    14    3
    21    10    11   ar
    22    11    12   ar
    23     5     6   ar
    24    25    26   ar
    25    26    20   ar
    26     6     1   ar
    27    12     7   ar
    28    15    18    1
@<TRIPOS>MOLECULE
*****
 26 28 0 0 0
SMALL
GASTEIGER

@<TRIPOS>ATOM
      1 C         139.9611  144.8950  157.5975 C.ar    1  UNL1        0.0728
      2 C         139.8935  143.8066  156.5675 C.ar    1  UNL1        0.1034
      3 N         139.6413  144.1498  155.1293 N.ar    1  UNL1       -0.2422
      4 C         139.4567  145.5813  154.7210 C.ar    1  UNL1        0.0988
      5 C         139.5244  146.6697  155.7510 C.ar    1  UNL1        0.0193
      6 C         139.7766  146.3265  157.1892 C.ar    1  UNL1        0.0076
      7 C         139.3398  148.1012  155.3427 C.ar    1  UNL1        0.0015
      8 C         139.8801  148.5819  154.0285 C.ar    1  UNL1        0.0007
      9 C         139.6955  150.0135  153.6203 C.ar    1  UNL1        0.0103
     10 C         138.9707  150.9643  154.5261 C.ar    1  UNL1        0.0684
     11 C         138.4305  150.4835  155.8403 C.ar    1  UNL1        0.0103
     12 C         138.6150  149.0520  156.2485 C.ar    1  UNL1        0.0007
     13 C         138.7862  152.3958  154.1179 C.1     1  UNL1        0.1004
     14 N         138.6016  153.8273  153.7096 N.1     1  UNL1       -0.1908
     15 N         139.9757  145.5774  160.1043 N.am    1  UNL1       -0.2804
     16 C         140.2133  144.5518  159.0358 C.2     1  UNL1        0.2510
     17 O         140.7031  143.1831  159.4055 O.2     1  UNL1       -0.2698
     18 H         139.6542  146.4757  159.8616 H       1  UNL1        0.1552
     19 C         143.2934  144.6318  163.9900 C.3     1  UNL1        0.0311
     20 C         141.8868  144.7614  163.4855 C.ar    1  UNL1       -0.0209
     21 C         140.7324  144.5480  164.4191 C.ar    1  UNL1       -0.0084
     22 C         139.3257  144.6776  163.9145 C.ar    1  UNL1       -0.0209
     23 C         138.1713  144.4641  164.8483 C.3     1  UNL1        0.0311
     24 C         139.0735  145.0208  162.4763 C.ar    1  UNL1        0.0104
     25 C         140.2279  145.2342  161.5426 C.ar    1  UNL1        0.0499
     26 C         141.6345  145.1046  162.0472 C.ar    1  UNL1        0.0104
@<TRIPOS>BOND
     1    19    20    1
     2    20    21   ar
     3    21    22   ar
     4    22    23    1
     5    22    24   ar
     6    24    25   ar
     7    25    15    1
     8    15    16   am
     9    16    17    2
    10    16     1    1
    11     1     2   ar
    12     2     3   ar
    13     3     4   ar
    14     4     5   ar
    15     5     7    1
    16     7     8   ar
    17     8     9   ar
    18     9    10   ar
    19    10    13    1
    20    13    14    3
    21    10    11   ar
    22    11    12   ar
    23     5     6   ar
    24    25    26   ar
    25    26    20   ar
    26     6     1   ar
    27    12     7   ar
    28    15    18    1
@<TRIPOS>MOLECULE
*****
 26 28 0 0 0
SMALL
GASTEIGER

@<TRIPOS>ATOM
      1 C         141.6492  143.7539  161.7649 C.ar    1  UNL1        0.0728
      2 C         142.7137  144.5356  162.4760 C.ar    1  UNL1        0.1034
      3 N         142.9417  144.3288  163.9440 N.ar    1  UNL1       -0.2422
      4 C         142.1052  143.3402  164.7010 C.ar    1  UNL1        0.0988
      5 C         141.0408  142.5584  163.9899 C.ar    1  UNL1        0.0193
      6 C         140.8128  142.7652  162.5218 C.ar    1  UNL1        0.0076
      7 C         140.2044  141.5698  164.7468 C.ar    1  UNL1        0.0015
      8 C         138.9659  141.0003  164.1208 C.ar    1  UNL1        0.0007
      9 C         138.1295  140.0117  164.8778 C.ar    1  UNL1        0.0103
     10 C         138.5315  139.5925  166.2607 C.ar    1  UNL1        0.0684
     11 C         139.7699  140.1619  166.8867 C.ar    1  UNL1        0.0103
     12 C         140.6064  141.1505  166.1298 C.ar    1  UNL1        0.0007
     13 C         137.6950  138.6039  167.0177 C.1     1  UNL1        0.1004
     14 N         136.8586  137.6152  167.7747 N.1     1  UNL1       -0.1908
     15 N         141.6852  145.3015  159.6783 N.am    1  UNL1       -0.2804
     16 C         141.4211  143.9607  160.2968 C.2     1  UNL1        0.2510
     17 O         140.9290  142.8267  159.4472 O.2     1  UNL1       -0.2698
     18 H         142.0082  146.0458  160.2360 H       1  UNL1        0.1552
     19 C         143.1742  144.5979  154.7500 C.3     1  UNL1        0.0311
     20 C         142.2016  145.1565  155.7461 C.ar    1  UNL1       -0.0209
     21 C         141.0011  145.9219  155.2741 C.ar    1  UNL1       -0.0084
     22 C         140.0285  146.4804  156.2702 C.ar    1  UNL1       -0.0209
     23 C         138.8279  147.2458  155.7981 C.3     1  UNL1        0.0311
     24 C         140.2565  146.2737  157.7382 C.ar    1  UNL1        0.0104
     25 C         141.4571  145.5083  158.2102 C.ar    1  UNL1        0.0499
     26 C         142.4296  144.9497  157.2141 C.ar    1  UNL1        0.0104
@<TRIPOS>BOND
     1    19    20    1
     2    20    21   ar
     3    21    22   ar
     4    22    23    1
     5    22    24   ar
     6    24    25   ar
     7    25    15    1
     8    15    16   am
     9    16    17    2
    10    16     1    1
    11     1     2   ar
    12     2     3   ar
    13     3     4   ar
    14     4     5   ar
    15     5     7    1
    16     7     8   ar
    17     8     9   ar
    18     9    10   ar
    19    10    13    1
    20    13    14    3
    21    10    11   ar
    22    11    12   ar
    23     5     6   ar
    24    25    26   ar
    25    26    20   ar
    26     6     1   ar
    27    12     7   ar
    28    15    18    1
@<TRIPOS>MOLECULE
*****
 26 28 0 0 0
SMALL
GASTEIGER

@<TRIPOS>ATOM
      1 C         141.1580  144.1152  161.7024 C.ar    1  UNL1        0.0728
      2 C         142.1384  144.9913  162.4243 C.ar    1  UNL1        0.1034
      3 N         142.3766  144.7989  163.8927 N.ar    1  UNL1       -0.2422
      4 C         141.6342  143.7304  164.6392 C.ar    1  UNL1        0.0988
      5 C         140.6538  142.8543  163.9173 C.ar    1  UNL1        0.0193
      6 C         140.4157  143.0467  162.4489 C.ar    1  UNL1        0.0076
      7 C         139.9115  141.7858  164.6638 C.ar    1  UNL1        0.0015
      8 C         140.2632  141.4855  166.0907 C.ar    1  UNL1        0.0007
      9 C         139.5209  140.4170  166.8372 C.ar    1  UNL1        0.0103
     10 C         138.4268  139.6489  166.1569 C.ar    1  UNL1        0.0684
     11 C         138.0750  139.9493  164.7300 C.ar    1  UNL1        0.0103
     12 C         138.8174  141.0177  163.9835 C.ar    1  UNL1        0.0007
     13 C         137.6845  138.5804  166.9034 C.1     1  UNL1        0.1004
     14 N         136.9421  137.5119  167.6499 N.1     1  UNL1       -0.1908
     15 N         141.6756  145.3639  159.4836 N.am    1  UNL1       -0.2804
     16 C         140.9198  144.3076  160.2339 C.2     1  UNL1        0.2510
     17 O         139.9259  143.4436  159.5158 O.2     1  UNL1       -0.2698
     18 H         142.3279  145.9310  159.9549 H       1  UNL1        0.1552
     19 C         138.7782  147.2483  155.6036 C.3     1  UNL1        0.0311
     20 C         139.9887  146.4985  156.0752 C.ar    1  UNL1       -0.0209
     21 C         140.9610  145.9410  155.0783 C.ar    1  UNL1       -0.0084
     22 C         142.1716  145.1912  155.5499 C.ar    1  UNL1       -0.0209
     23 C         143.1440  144.6337  154.5530 C.3     1  UNL1        0.0311
     24 C         142.4098  144.9988  157.0183 C.ar    1  UNL1        0.0104
     25 C         141.4374  145.5563  158.0151 C.ar    1  UNL1        0.0499
     26 C         140.2269  146.3061  157.5436 C.ar    1  UNL1        0.0104
@<TRIPOS>BOND
     1    19    20    1
     2    20    21   ar
     3    21    22   ar
     4    22    23    1
     5    22    24   ar
     6    24    25   ar
     7    25    15    1
     8    15    16   am
     9    16    17    2
    10    16     1    1
    11     1     2   ar
    12     2     3   ar
    13     3     4   ar
    14     4     5   ar
    15     5     7    1
    16     7     8   ar
    17     8     9   ar
    18     9    10   ar
    19    10    13    1
    20    13    14    3
    21    10    11   ar
    22    11    12   ar
    23     5     6   ar
    24    25    26   ar
    25    26    20   ar
    26     6     1   ar
    27    12     7   ar
    28    15    18    1
@<TRIPOS>MOLECULE
*****
 26 28 0 0 0
SMALL
GASTEIGER

@<TRIPOS>ATOM
      1 C         138.6172  140.5709  162.2966 C.ar    1  UNL1        0.0728
      2 C         138.3948  139.1196  161.9897 C.ar    1  UNL1        0.1034
      3 N         138.4886  138.0987  163.0846 N.ar    1  UNL1       -0.2422
      4 C         138.8047  138.5291  164.4863 C.ar    1  UNL1        0.0988
      5 C         139.0271  139.9804  164.7932 C.ar    1  UNL1        0.0193
      6 C         138.9333  141.0013  163.6983 C.ar    1  UNL1        0.0076
      7 C         139.3432  140.4107  166.1949 C.ar    1  UNL1        0.0015
      8 C         140.0515  141.7102  166.4387 C.ar    1  UNL1        0.0007
      9 C         140.3677  142.1406  167.8405 C.ar    1  UNL1        0.0103
     10 C         139.9755  141.2715  168.9984 C.ar    1  UNL1        0.0684
     11 C         139.2671  139.9720  168.7545 C.ar    1  UNL1        0.0103
     12 C         138.9510  139.5416  167.3528 C.ar    1  UNL1        0.0007
     13 C         140.2916  141.7019  170.4001 C.1     1  UNL1        0.1004
     14 N         140.6077  142.1322  171.8018 N.1     1  UNL1       -0.1908
     15 N         139.2280  141.3604  159.8979 N.am    1  UNL1       -0.2804
     16 C         138.5234  141.5920  161.2016 C.2     1  UNL1        0.2510
     17 O         137.7250  142.8445  161.4106 O.2     1  UNL1       -0.2698
     18 H         139.7520  140.5383  159.7607 H       1  UNL1        0.1552
     19 C         136.9719  143.1075  155.5553 C.3     1  UNL1        0.0311
     20 C         138.0062  143.2549  156.6317 C.ar    1  UNL1       -0.0209
     21 C         138.9466  144.4233  156.6132 C.ar    1  UNL1       -0.0084
     22 C         139.9809  144.5708  157.6896 C.ar    1  UNL1       -0.0209
     23 C         140.9213  145.7392  157.6710 C.3     1  UNL1        0.0311
     24 C         140.0747  143.5498  158.7844 C.ar    1  UNL1        0.0104
     25 C         139.1342  142.3814  158.8029 C.ar    1  UNL1        0.0499
     26 C         138.1000  142.2340  157.7265 C.ar    1  UNL1        0.0104
@<TRIPOS>BOND
     1    19    20    1
     2    20    21   ar
     3    21    22   ar
     4    22    23    1
     5    22    24   ar
     6    24    25   ar
     7    25    15    1
     8    15    16   am
     9    16    17    2
    10    16     1    1
    11     1     2   ar
    12     2     3   ar
    13     3     4   ar
    14     4     5   ar
    15     5     7    1
    16     7     8   ar
    17     8     9   ar
    18     9    10   ar
    19    10    13    1
    20    13    14    3
    21    10    11   ar
    22    11    12   ar
    23     5     6   ar
    24    25    26   ar
    25    26    20   ar
    26     6     1   ar
    27    12     7   ar
    28    15    18    1
@<TRIPOS>MOLECULE
*****
 26 28 0 0 0
SMALL
GASTEIGER

@<TRIPOS>ATOM
      1 C         139.8497  144.0821  162.8936 C.ar    1  UNL1        0.0728
      2 C         139.1463  145.3612  162.5485 C.ar    1  UNL1        0.1034
      3 N         139.4929  146.0902  161.2843 N.ar    1  UNL1       -0.2422
      4 C         140.5429  145.5401  160.3652 C.ar    1  UNL1        0.0988
      5 C         141.2464  144.2611  160.7102 C.ar    1  UNL1        0.0193
      6 C         140.8997  143.5320  161.9744 C.ar    1  UNL1        0.0076
      7 C         142.2964  143.7110  159.7911 C.ar    1  UNL1        0.0015
      8 C         143.4848  142.9907  160.3557 C.ar    1  UNL1        0.0007
      9 C         144.5348  142.4407  159.4366 C.ar    1  UNL1        0.0103
     10 C         144.3965  142.6109  157.9527 C.ar    1  UNL1        0.0684
     11 C         143.2081  143.3312  157.3881 C.ar    1  UNL1        0.0103
     12 C         142.1581  143.8813  158.3072 C.ar    1  UNL1        0.0007
     13 C         145.4465  142.0609  157.0336 C.1     1  UNL1        0.1004
     14 N         146.4966  141.5108  156.1144 N.1     1  UNL1       -0.1908
     15 N         140.2336  142.0947  164.5224 N.am    1  UNL1       -0.2804
     16 C         139.5031  143.3530  164.1579 C.2     1  UNL1        0.2510
     17 O         138.4259  143.8822  165.0576 O.2     1  UNL1       -0.2698
     18 H         140.9406  141.7473  163.9318 H       1  UNL1        0.1552
     19 C         137.6561  138.3035  166.9685 C.3     1  UNL1        0.0311
     20 C         138.5982  139.4700  167.0097 C.ar    1  UNL1       -0.0209
     21 C         139.1937  139.9073  168.3150 C.ar    1  UNL1       -0.0084
     22 C         140.1359  141.0738  168.3562 C.ar    1  UNL1       -0.0209
     23 C         140.7314  141.5112  169.6617 C.3     1  UNL1        0.0311
     24 C         140.4825  141.8029  167.0920 C.ar    1  UNL1        0.0104
     25 C         139.8870  141.3655  165.7867 C.ar    1  UNL1        0.0499
     26 C         138.9448  140.1991  165.7455 C.ar    1  UNL1        0.0104
@<TRIPOS>BOND
     1    19    20    1
     2    20    21   ar
     3    21    22   ar
     4    22    23    1
     5    22    24   ar
     6    24    25   ar
     7    25    15    1
     8    15    16   am
     9    16    17    2
    10    16     1    1
    11     1     2   ar
    12     2     3   ar
    13     3     4   ar
    14     4     5   ar
    15     5     7    1
    16     7     8   ar
    17     8     9   ar
    18     9    10   ar
    19    10    13    1
    20    13    14    3
    21    10    11   ar
    22    11    12   ar
    23     5     6   ar
    24    25    26   ar
    25    26    20   ar
    26     6     1   ar
    27    12     7   ar
    28    15    18    1
@<TRIPOS>MOLECULE
*****
 26 28 0 0 0
SMALL
GASTEIGER

@<TRIPOS>ATOM
      1 C         138.6174  140.6302  162.2818 C.ar    1  UNL1        0.0728
      2 C         138.3699  139.1809  161.9850 C.ar    1  UNL1        0.1034
      3 N         138.4562  138.1647  163.0849 N.ar    1  UNL1       -0.2422
      4 C         138.7899  138.5979  164.4817 C.ar    1  UNL1        0.0988
      5 C         139.0374  140.0472  164.7785 C.ar    1  UNL1        0.0193
      6 C         138.9512  141.0634  163.6786 C.ar    1  UNL1        0.0076
      7 C         139.3711  140.4804  166.1753 C.ar    1  UNL1        0.0015
      8 C         140.1006  141.7706  166.4063 C.ar    1  UNL1        0.0007
      9 C         140.4343  142.2038  167.8031 C.ar    1  UNL1        0.0103
     10 C         140.0386  141.3468  168.9688 C.ar    1  UNL1        0.0684
     11 C         139.3092  140.0567  168.7378 C.ar    1  UNL1        0.0103
     12 C         138.9755  139.6235  167.3410 C.ar    1  UNL1        0.0007
     13 C         140.3724  141.7800  170.3656 C.1     1  UNL1        0.1004
     14 N         140.7061  142.2132  171.7624 N.1     1  UNL1       -0.1908
     15 N         139.2220  141.3966  159.8740 N.am    1  UNL1       -0.2804
     16 C         138.5312  141.6464  161.1818 C.2     1  UNL1        0.2510
     17 O         137.7541  142.9125  161.3896 O.2     1  UNL1       -0.2698
     18 H         139.7321  140.5656  159.7376 H       1  UNL1        0.1552
     19 C         141.0216  145.6870  157.5601 C.3     1  UNL1        0.0311
     20 C         140.0356  144.5580  157.6171 C.ar    1  UNL1       -0.0209
     21 C         138.9634  144.4452  156.5742 C.ar    1  UNL1       -0.0084
     22 C         137.9775  143.3163  156.6312 C.ar    1  UNL1       -0.0209
     23 C         136.9053  143.2035  155.5883 C.3     1  UNL1        0.0311
     24 C         138.0636  142.3001  157.7311 C.ar    1  UNL1        0.0104
     25 C         139.1358  142.4128  158.7741 C.ar    1  UNL1        0.0499
     26 C         140.1218  143.5418  158.7171 C.ar    1  UNL1        0.0104
@<TRIPOS>BOND
     1    19    20    1
     2    20    21   ar
     3    21    22   ar
     4    22    23    1
     5    22    24   ar
     6    24    25   ar
     7    25    15    1
     8    15    16   am
     9    16    17    2
    10    16     1    1
    11     1     2   ar
    12     2     3   ar
    13     3     4   ar
    14     4     5   ar
    15     5     7    1
    16     7     8   ar
    17     8     9   ar
    18     9    10   ar
    19    10    13    1
    20    13    14    3
    21    10    11   ar
    22    11    12   ar
    23     5     6   ar
    24    25    26   ar
    25    26    20   ar
    26     6     1   ar
    27    12     7   ar
    28    15    18    1
@<TRIPOS>MOLECULE
*****
 26 28 0 0 0
SMALL
GASTEIGER

@<TRIPOS>ATOM
      1 C         142.5295  137.4523  157.7810 C.ar    1  UNL1        0.0728
      2 C         142.1404  138.2928  156.6011 C.ar    1  UNL1        0.1034
      3 N         142.1967  137.7154  155.2179 N.ar    1  UNL1       -0.2422
      4 C         142.6421  136.2976  155.0145 C.ar    1  UNL1        0.0988
      5 C         143.0312  135.4571  156.1943 C.ar    1  UNL1        0.0193
      6 C         142.9750  136.0345  157.5776 C.ar    1  UNL1        0.0076
      7 C         143.4767  134.0393  155.9909 C.ar    1  UNL1        0.0015
      8 C         144.3787  133.3852  156.9951 C.ar    1  UNL1        0.0007
      9 C         144.8242  131.9673  156.7917 C.ar    1  UNL1        0.0103
     10 C         144.3675  131.2036  155.5841 C.ar    1  UNL1        0.0684
     11 C         143.4655  131.8578  154.5800 C.ar    1  UNL1        0.0103
     12 C         143.0200  133.2756  154.7834 C.ar    1  UNL1        0.0007
     13 C         144.8130  129.7858  155.3807 C.1     1  UNL1        0.1004
     14 N         145.2584  128.3680  155.1773 N.1     1  UNL1       -0.1908
     15 N         142.9305  137.2135  160.3368 N.am    1  UNL1       -0.2804
     16 C         142.4733  138.0296  159.1643 C.2     1  UNL1        0.2510
     17 O         141.9597  139.4231  159.3751 O.2     1  UNL1       -0.2698
     18 H         143.2676  136.2989  160.1985 H       1  UNL1        0.1552
     19 C         145.0915  140.0374  164.1257 C.3     1  UNL1        0.0311
     20 C         143.9548  139.2027  163.6146 C.ar    1  UNL1       -0.0209
     21 C         142.7618  138.9455  164.4867 C.ar    1  UNL1       -0.0084
     22 C         141.6251  138.1109  163.9756 C.ar    1  UNL1       -0.0209
     23 C         140.4321  137.8536  164.8478 C.3     1  UNL1        0.0311
     24 C         141.6813  137.5335  162.5923 C.ar    1  UNL1        0.0104
     25 C         142.8743  137.7908  161.7202 C.ar    1  UNL1        0.0499
     26 C         144.0110  138.6254  162.2313 C.ar    1  UNL1        0.0104
@<TRIPOS>BOND
     1    19    20    1
     2    20    21   ar
     3    21    22   ar
     4    22    23    1
     5    22    24   ar
     6    24    25   ar
     7    25    15    1
     8    15    16   am
     9    16    17    2
    10    16     1    1
    11     1     2   ar
    12     2     3   ar
    13     3     4   ar
    14     4     5   ar
    15     5     7    1
    16     7     8   ar
    17     8     9   ar
    18     9    10   ar
    19    10    13    1
    20    13    14    3
    21    10    11   ar
    22    11    12   ar
    23     5     6   ar
    24    25    26   ar
    25    26    20   ar
    26     6     1   ar
    27    12     7   ar
    28    15    18    1
@<TRIPOS>MOLECULE
*****
 26 28 0 0 0
SMALL
GASTEIGER

@<TRIPOS>ATOM
      1 C         142.6383  137.4524  157.9015 C.ar    1  UNL1        0.0728
      2 C         142.4333  138.3575  156.7231 C.ar    1  UNL1        0.1034
      3 N         142.6184  137.8300  155.3312 N.ar    1  UNL1       -0.2422
      4 C         143.0083  136.3974  155.1178 C.ar    1  UNL1        0.0988
      5 C         143.2133  135.4923  156.2962 C.ar    1  UNL1        0.0193
      6 C         143.0282  136.0198  157.6881 C.ar    1  UNL1        0.0076
      7 C         143.6033  134.0597  156.0828 C.ar    1  UNL1        0.0015
      8 C         143.1144  133.3217  154.8719 C.ar    1  UNL1        0.0007
      9 C         143.5044  131.8891  154.6584 C.ar    1  UNL1        0.0103
     10 C         144.3833  131.1945  155.6559 C.ar    1  UNL1        0.0684
     11 C         144.8721  131.9324  156.8668 C.ar    1  UNL1        0.0103
     12 C         144.4821  133.3650  157.0803 C.ar    1  UNL1        0.0007
     13 C         144.7732  129.7619  155.4425 C.1     1  UNL1        0.1004
     14 N         145.1632  128.3293  155.2290 N.1     1  UNL1       -0.1908
     15 N         143.1427  137.3125  160.4464 N.am    1  UNL1       -0.2804
     16 C         142.4532  137.9800  159.2935 C.2     1  UNL1        0.2510
     17 O         141.5787  139.1749  159.5326 O.2     1  UNL1       -0.2698
     18 H         143.7167  136.5282  160.2894 H       1  UNL1        0.1552
     19 C         140.2763  137.7165  164.7615 C.3     1  UNL1        0.0311
     20 C         141.5245  138.0420  163.9959 C.ar    1  UNL1       -0.0209
     21 C         142.5875  138.8950  164.6222 C.ar    1  UNL1       -0.0084
     22 C         143.8356  139.2205  163.8565 C.ar    1  UNL1       -0.0209
     23 C         144.8987  140.0735  164.4829 C.3     1  UNL1        0.0311
     24 C         144.0207  138.6930  162.4646 C.ar    1  UNL1        0.0104
     25 C         142.9577  137.8400  161.8383 C.ar    1  UNL1        0.0499
     26 C         141.7095  137.5145  162.6040 C.ar    1  UNL1        0.0104
@<TRIPOS>BOND
     1    19    20    1
     2    20    21   ar
     3    21    22   ar
     4    22    23    1
     5    22    24   ar
     6    24    25   ar
     7    25    15    1
     8    15    16   am
     9    16    17    2
    10    16     1    1
    11     1     2   ar
    12     2     3   ar
    13     3     4   ar
    14     4     5   ar
    15     5     7    1
    16     7     8   ar
    17     8     9   ar
    18     9    10   ar
    19    10    13    1
    20    13    14    3
    21    10    11   ar
    22    11    12   ar
    23     5     6   ar
    24    25    26   ar
    25    26    20   ar
    26     6     1   ar
    27    12     7   ar
    28    15    18    1
