@<TRIPOS>MOLECULE
*****
 24 27 0 0 0
SMALL
GASTEIGER

@<TRIPOS>ATOM
      1 N         143.5699  143.8945  171.4456 N.pl3   1  UNL1       -0.3375
      2 C         142.9468  143.0818  170.3495 C.ar    1  UNL1        0.1567
      3 N         143.6062  142.6854  169.0619 N.ar    1  UNL1       -0.2245
      4 C         142.6218  141.8815  168.2653 C.ar    1  UNL1        0.0889
      5 C         142.7162  141.2279  166.9184 C.ar    1  UNL1        0.0151
      6 C         141.5425  140.4739  166.3669 C.ar    1  UNL1       -0.0232
      7 C         140.2748  140.3734  167.1621 C.ar    1  UNL1       -0.0241
      8 C         140.1804  141.0270  168.5089 C.ar    1  UNL1        0.0035
      9 C         141.3540  141.7810  169.0606 C.ar    1  UNL1        0.0494
     10 S         141.5548  142.5228  170.3487 S.2     1  UNL1       -0.0520
     11 C         138.9971  139.6754  166.8010 C.3     1  UNL1        0.0434
     12 C         138.6717  138.9055  165.5554 C.3     1  UNL1        0.0771
     13 N         139.5437  138.6434  164.3635 N.3     1  UNL1       -0.2670
     14 C         140.9563  139.0865  164.1225 C.3     1  UNL1        0.0771
     15 C         141.8459  139.9012  165.0141 C.3     1  UNL1        0.0434
     16 H         144.4950  144.2183  171.3533 H       1  UNL1        0.1442
     17 H         143.0537  144.1040  172.2573 H       1  UNL1        0.1442
     18 C         138.9206  137.8308  163.2674 C.3     1  UNL1        0.1187
     19 C         138.8572  138.3771  161.8718 C.ar    1  UNL1        0.0752
     20 C         137.7876  139.3605  161.4992 C.ar    1  UNL1        0.0161
     21 C         137.7242  139.9069  160.1038 C.ar    1  UNL1        0.0028
     22 C         138.7305  139.4698  159.0808 C.ar    1  UNL1        0.0207
     23 C         139.8001  138.4863  159.4534 C.ar    1  UNL1        0.0985
     24 N         139.8635  137.9400  160.8488 N.ar    1  UNL1       -0.2468
@<TRIPOS>BOND
     1     1     2    1
     2     2     3   ar
     3     3     4   ar
     4     4     5   ar
     5     5     6   ar
     6     6     7   ar
     7     7     8   ar
     8     8     9   ar
     9     9    10   ar
    10     7    11    1
    11    11    12    1
    12    12    13    1
    13    13    18    1
    14    18    19    1
    15    19    20   ar
    16    20    21   ar
    17    21    22   ar
    18    22    23   ar
    19    23    24   ar
    20    13    14    1
    21    14    15    1
    22    10     2   ar
    23    24    19   ar
    24     9     4   ar
    25    15     6    1
    26     1    16    1
    27     1    17    1
@<TRIPOS>MOLECULE
*****
 24 27 0 0 0
SMALL
GASTEIGER

@<TRIPOS>ATOM
      1 N         143.8533  139.5538  171.4389 N.pl3   1  UNL1       -0.3375
      2 C         143.0821  140.0207  170.2400 C.ar    1  UNL1        0.1567
      3 N         142.8048  139.2189  169.0030 N.ar    1  UNL1       -0.2245
      4 C         142.0041  140.0740  168.0662 C.ar    1  UNL1        0.0889
      5 C         141.4450  139.8131  166.6989 C.ar    1  UNL1        0.0151
      6 C         140.6683  140.8826  165.9896 C.ar    1  UNL1       -0.0232
      7 C         140.4508  142.2128  166.6476 C.ar    1  UNL1       -0.0241
      8 C         141.0099  142.4737  168.0149 C.ar    1  UNL1        0.0035
      9 C         141.7865  141.4043  168.7242 C.ar    1  UNL1        0.0494
     10 S         142.4528  141.3713  170.0677 S.2     1  UNL1       -0.0520
     11 C         139.7122  143.4073  166.1206 C.3     1  UNL1        0.0434
     12 C         139.0087  143.5664  164.8053 C.3     1  UNL1        0.0771
     13 N         138.8702  142.5705  163.6924 N.3     1  UNL1       -0.2670
     14 C         139.4008  141.1693  163.6197 C.3     1  UNL1        0.0771
     15 C         140.2011  140.4181  164.6421 C.3     1  UNL1        0.0434
     16 H         144.2301  138.6445  171.4584 H       1  UNL1        0.1442
     17 H         143.9827  140.1568  172.2064 H       1  UNL1        0.1442
     18 C         138.0990  143.0373  162.4935 C.3     1  UNL1        0.1187
     19 C         138.8257  143.4438  161.2458 C.ar    1  UNL1        0.0752
     20 C         139.9016  144.4870  161.3107 C.ar    1  UNL1        0.0161
     21 C         140.6283  144.8935  160.0631 C.ar    1  UNL1        0.0028
     22 C         140.2792  144.2567  158.7506 C.ar    1  UNL1        0.0207
     23 C         139.2034  143.2135  158.6857 C.ar    1  UNL1        0.0985
     24 N         138.4766  142.8070  159.9333 N.ar    1  UNL1       -0.2468
@<TRIPOS>BOND
     1     1     2    1
     2     2     3   ar
     3     3     4   ar
     4     4     5   ar
     5     5     6   ar
     6     6     7   ar
     7     7     8   ar
     8     8     9   ar
     9     9    10   ar
    10     7    11    1
    11    11    12    1
    12    12    13    1
    13    13    18    1
    14    18    19    1
    15    19    20   ar
    16    20    21   ar
    17    21    22   ar
    18    22    23   ar
    19    23    24   ar
    20    13    14    1
    21    14    15    1
    22    10     2   ar
    23    24    19   ar
    24     9     4   ar
    25    15     6    1
    26     1    16    1
    27     1    17    1
@<TRIPOS>MOLECULE
*****
 24 27 0 0 0
SMALL
GASTEIGER

@<TRIPOS>ATOM
      1 N         143.3200  143.7568  171.5039 N.pl3   1  UNL1       -0.3375
      2 C         142.7353  142.9525  170.3809 C.ar    1  UNL1        0.1567
      3 N         141.2781  142.6703  170.1639 N.ar    1  UNL1       -0.2245
      4 C         141.1474  141.8326  168.9266 C.ar    1  UNL1        0.0889
      5 C         139.9528  141.2538  168.2280 C.ar    1  UNL1        0.0151
      6 C         140.1347  140.4394  166.9814 C.ar    1  UNL1       -0.0232
      7 C         141.5109  140.2038  166.4337 C.ar    1  UNL1       -0.0241
      8 C         142.7055  140.7826  167.1322 C.ar    1  UNL1        0.0035
      9 C         142.5237  141.5970  168.3788 C.ar    1  UNL1        0.0494
     10 S         143.5051  142.2891  169.2776 S.2     1  UNL1       -0.0520
     11 C         141.9120  139.4281  165.2140 C.3     1  UNL1        0.0434
     12 C         141.0356  138.6963  164.2411 C.3     1  UNL1        0.0771
     13 N         139.5420  138.5596  164.2474 N.3     1  UNL1       -0.2670
     14 C         138.5556  139.1209  165.2283 C.3     1  UNL1        0.0771
     15 C         138.8193  139.9575  166.4450 C.3     1  UNL1        0.0434
     16 H         142.7296  144.1547  172.1838 H       1  UNL1        0.1442
     17 H         144.2942  143.8869  171.5610 H       1  UNL1        0.1442
     18 C         138.9573  137.7553  163.1244 C.3     1  UNL1        0.1187
     19 C         138.8930  138.3336  161.7418 C.ar    1  UNL1        0.0752
     20 C         137.8172  139.3179  161.3898 C.ar    1  UNL1        0.0161
     21 C         137.7529  139.8962  160.0073 C.ar    1  UNL1        0.0028
     22 C         138.7644  139.4902  158.9767 C.ar    1  UNL1        0.0207
     23 C         139.8402  138.5059  159.3287 C.ar    1  UNL1        0.0985
     24 N         139.9045  137.9276  160.7112 N.ar    1  UNL1       -0.2468
@<TRIPOS>BOND
     1     1     2    1
     2     2     3   ar
     3     3     4   ar
     4     4     5   ar
     5     5     6   ar
     6     6     7   ar
     7     7     8   ar
     8     8     9   ar
     9     9    10   ar
    10     7    11    1
    11    11    12    1
    12    12    13    1
    13    13    18    1
    14    18    19    1
    15    19    20   ar
    16    20    21   ar
    17    21    22   ar
    18    22    23   ar
    19    23    24   ar
    20    13    14    1
    21    14    15    1
    22    10     2   ar
    23    24    19   ar
    24     9     4   ar
    25    15     6    1
    26     1    16    1
    27     1    17    1
@<TRIPOS>MOLECULE
*****
 24 27 0 0 0
SMALL
GASTEIGER

@<TRIPOS>ATOM
      1 N         142.7918  140.2120  171.4783 N.pl3   1  UNL1       -0.3375
      2 C         142.2077  140.0531  170.1058 C.ar    1  UNL1        0.1567
      3 N         142.9419  139.5864  168.8837 N.ar    1  UNL1       -0.2245
      4 C         141.9749  139.5779  167.7371 C.ar    1  UNL1        0.0889
      5 C         142.1350  139.2096  166.2918 C.ar    1  UNL1        0.0151
      6 C         140.9633  139.3028  165.3599 C.ar    1  UNL1       -0.0232
      7 C         139.6316  139.7642  165.8732 C.ar    1  UNL1       -0.0241
      8 C         139.4714  140.1325  167.3184 C.ar    1  UNL1        0.0035
      9 C         140.6431  140.0394  168.2504 C.ar    1  UNL1        0.0494
     10 S         140.7870  140.3330  169.7143 S.2     1  UNL1       -0.0520
     11 C         138.3446  139.9277  165.1202 C.3     1  UNL1        0.0434
     12 C         138.0716  139.6701  163.6678 C.3     1  UNL1        0.0771
     13 N         139.0180  139.1855  162.6100 N.3     1  UNL1       -0.2670
     14 C         140.4713  138.8387  162.7430 C.3     1  UNL1        0.0771
     15 C         141.3371  138.8909  163.9668 C.3     1  UNL1        0.0434
     16 H         143.7404  140.0018  171.6369 H       1  UNL1        0.1442
     17 H         142.2264  140.5264  172.2204 H       1  UNL1        0.1442
     18 C         138.4340  139.0266  161.2375 C.3     1  UNL1        0.1187
     19 C         138.4058  140.1930  160.2947 C.ar    1  UNL1        0.0752
     20 C         138.8833  141.5393  160.7527 C.ar    1  UNL1        0.0161
     21 C         138.8551  142.7056  159.8101 C.ar    1  UNL1        0.0028
     22 C         138.3494  142.5258  158.4094 C.ar    1  UNL1        0.0207
     23 C         137.8718  141.1796  157.9514 C.ar    1  UNL1        0.0985
     24 N         137.9000  140.0133  158.8940 N.ar    1  UNL1       -0.2468
@<TRIPOS>BOND
     1     1     2    1
     2     2     3   ar
     3     3     4   ar
     4     4     5   ar
     5     5     6   ar
     6     6     7   ar
     7     7     8   ar
     8     8     9   ar
     9     9    10   ar
    10     7    11    1
    11    11    12    1
    12    12    13    1
    13    13    18    1
    14    18    19    1
    15    19    20   ar
    16    20    21   ar
    17    21    22   ar
    18    22    23   ar
    19    23    24   ar
    20    13    14    1
    21    14    15    1
    22    10     2   ar
    23    24    19   ar
    24     9     4   ar
    25    15     6    1
    26     1    16    1
    27     1    17    1
@<TRIPOS>MOLECULE
*****
 24 27 0 0 0
SMALL
GASTEIGER

@<TRIPOS>ATOM
      1 N         140.3447  142.5064  171.7291 N.pl3   1  UNL1       -0.3375
      2 C         140.1805  141.9712  170.3374 C.ar    1  UNL1        0.1567
      3 N         140.5944  142.6625  169.0722 N.ar    1  UNL1       -0.2245
      4 C         140.2431  141.7692  167.9196 C.ar    1  UNL1        0.0889
      5 C         140.4164  141.9274  166.4381 C.ar    1  UNL1        0.0151
      6 C         139.9586  140.8421  165.5093 C.ar    1  UNL1       -0.0232
      7 C         139.3276  139.5987  166.0621 C.ar    1  UNL1       -0.0241
      8 C         139.1543  139.4404  167.5436 C.ar    1  UNL1        0.0035
      9 C         139.6121  140.5257  168.4724 C.ar    1  UNL1        0.0494
     10 S         139.5734  140.6506  169.9667 S.2     1  UNL1       -0.0520
     11 C         138.8057  138.4049  165.3188 C.3     1  UNL1        0.0434
     12 C         138.7859  138.1598  163.8390 C.3     1  UNL1        0.0771
     13 N         139.2832  139.0478  162.7373 N.3     1  UNL1       -0.2670
     14 C         139.9230  140.4004  162.8430 C.3     1  UNL1        0.0771
     15 C         140.2236  141.1990  164.0767 C.3     1  UNL1        0.0434
     16 H         140.7573  143.3889  171.8715 H       1  UNL1        0.1442
     17 H         140.0400  141.9753  172.4999 H       1  UNL1        0.1442
     18 C         139.1189  138.5126  161.3457 C.3     1  UNL1        0.1187
     19 C         140.3212  138.3179  160.4701 C.ar    1  UNL1        0.0752
     20 C         140.2594  138.6885  159.0179 C.ar    1  UNL1        0.0161
     21 C         141.4616  138.4938  158.1423 C.ar    1  UNL1        0.0028
     22 C         142.7257  137.9285  158.7189 C.ar    1  UNL1        0.0207
     23 C         142.7876  137.5580  160.1711 C.ar    1  UNL1        0.0985
     24 N         141.5854  137.7526  161.0467 N.ar    1  UNL1       -0.2468
@<TRIPOS>BOND
     1     1     2    1
     2     2     3   ar
     3     3     4   ar
     4     4     5   ar
     5     5     6   ar
     6     6     7   ar
     7     7     8   ar
     8     8     9   ar
     9     9    10   ar
    10     7    11    1
    11    11    12    1
    12    12    13    1
    13    13    18    1
    14    18    19    1
    15    19    20   ar
    16    20    21   ar
    17    21    22   ar
    18    22    23   ar
    19    23    24   ar
    20    13    14    1
    21    14    15    1
    22    10     2   ar
    23    24    19   ar
    24     9     4   ar
    25    15     6    1
    26     1    16    1
    27     1    17    1
@<TRIPOS>MOLECULE
*****
 24 27 0 0 0
SMALL
GASTEIGER

@<TRIPOS>ATOM
      1 N         139.5926  139.0577  171.8367 N.pl3   1  UNL1       -0.3375
      2 C         140.0982  139.8086  170.6407 C.ar    1  UNL1        0.1567
      3 N         141.5379  140.0306  170.2828 N.ar    1  UNL1       -0.2245
      4 C         141.5823  140.8285  169.0135 C.ar    1  UNL1        0.0889
      5 C         142.7264  141.3432  168.1910 C.ar    1  UNL1        0.0151
      6 C         142.4581  142.1291  166.9418 C.ar    1  UNL1       -0.0232
      7 C         141.0459  142.4003  166.5152 C.ar    1  UNL1       -0.0241
      8 C         139.9019  141.8857  167.3376 C.ar    1  UNL1        0.0035
      9 C         140.1701  141.0998  168.5868 C.ar    1  UNL1        0.0494
     10 S         139.2529  140.4694  169.5925 S.2     1  UNL1       -0.0520
     11 C         140.5607  143.1565  165.3140 C.3     1  UNL1        0.0434
     12 C         141.3679  143.8283  164.2429 C.3     1  UNL1        0.0771
     13 N         142.8596  143.9096  164.1084 N.3     1  UNL1       -0.2670
     14 C         143.9126  143.3395  165.0118 C.3     1  UNL1        0.0771
     15 C         143.7339  142.5470  166.2728 C.3     1  UNL1        0.0434
     16 H         140.2293  138.6572  172.4718 H       1  UNL1        0.1442
     17 H         138.6239  138.9655  171.9867 H       1  UNL1        0.1442
     18 C         143.3652  144.6605  162.9124 C.3     1  UNL1        0.1187
     19 C         143.3646  144.0079  161.5617 C.ar    1  UNL1        0.0752
     20 C         144.3730  142.9443  161.2422 C.ar    1  UNL1        0.0161
     21 C         144.3724  142.2918  159.8917 C.ar    1  UNL1        0.0028
     22 C         143.3635  142.7027  158.8606 C.ar    1  UNL1        0.0207
     23 C         142.3552  143.7663  159.1800 C.ar    1  UNL1        0.0985
     24 N         142.3557  144.4189  160.5306 N.ar    1  UNL1       -0.2468
@<TRIPOS>BOND
     1     1     2    1
     2     2     3   ar
     3     3     4   ar
     4     4     5   ar
     5     5     6   ar
     6     6     7   ar
     7     7     8   ar
     8     8     9   ar
     9     9    10   ar
    10     7    11    1
    11    11    12    1
    12    12    13    1
    13    13    18    1
    14    18    19    1
    15    19    20   ar
    16    20    21   ar
    17    21    22   ar
    18    22    23   ar
    19    23    24   ar
    20    13    14    1
    21    14    15    1
    22    10     2   ar
    23    24    19   ar
    24     9     4   ar
    25    15     6    1
    26     1    16    1
    27     1    17    1
@<TRIPOS>MOLECULE
*****
 24 27 0 0 0
SMALL
GASTEIGER

@<TRIPOS>ATOM
      1 N         140.3572  140.1612  171.6158 N.pl3   1  UNL1       -0.3375
      2 C         140.6884  139.9824  170.1638 C.ar    1  UNL1        0.1567
      3 N         139.7159  140.0450  169.0234 N.ar    1  UNL1       -0.2245
      4 C         140.4767  139.8110  167.7521 C.ar    1  UNL1        0.0889
      5 C         140.0421  139.7598  166.3173 C.ar    1  UNL1        0.0151
      6 C         141.0503  139.5014  165.2370 C.ar    1  UNL1       -0.0232
      7 C         142.4929  139.2942  165.5916 C.ar    1  UNL1       -0.0241
      8 C         142.9275  139.3454  167.0263 C.ar    1  UNL1        0.0035
      9 C         141.9194  139.6038  168.1066 C.ar    1  UNL1        0.0494
     10 S         142.0502  139.7097  169.5971 S.2     1  UNL1       -0.0520
     11 C         143.6514  139.0253  164.6774 C.3     1  UNL1        0.0434
     12 C         143.6532  138.8971  163.1828 C.3     1  UNL1        0.0771
     13 N         142.4971  139.0063  162.2335 N.3     1  UNL1       -0.2670
     14 C         141.0536  139.2705  162.5440 C.3     1  UNL1        0.0771
     15 C         140.4097  139.4909  163.8807 C.3     1  UNL1        0.0434
     16 H         139.4285  140.3376  171.8908 H       1  UNL1        0.1442
     17 H         141.0686  140.1020  172.2938 H       1  UNL1        0.1442
     18 C         142.8283  138.8276  160.7814 C.3     1  UNL1        0.1187
     19 C         143.4036  139.9696  159.9972 C.ar    1  UNL1        0.0752
     20 C         143.3857  141.3563  160.5689 C.ar    1  UNL1        0.0161
     21 C         143.9609  142.4982  159.7848 C.ar    1  UNL1        0.0028
     22 C         144.5540  142.2536  158.4289 C.ar    1  UNL1        0.0207
     23 C         144.5719  140.8669  157.8572 C.ar    1  UNL1        0.0985
     24 N         143.9967  139.7249  158.6413 N.ar    1  UNL1       -0.2468
@<TRIPOS>BOND
     1     1     2    1
     2     2     3   ar
     3     3     4   ar
     4     4     5   ar
     5     5     6   ar
     6     6     7   ar
     7     7     8   ar
     8     8     9   ar
     9     9    10   ar
    10     7    11    1
    11    11    12    1
    12    12    13    1
    13    13    18    1
    14    18    19    1
    15    19    20   ar
    16    20    21   ar
    17    21    22   ar
    18    22    23   ar
    19    23    24   ar
    20    13    14    1
    21    14    15    1
    22    10     2   ar
    23    24    19   ar
    24     9     4   ar
    25    15     6    1
    26     1    16    1
    27     1    17    1
@<TRIPOS>MOLECULE
*****
 24 27 0 0 0
SMALL
GASTEIGER

@<TRIPOS>ATOM
      1 N         140.2503  142.5076  171.4430 N.pl3   1  UNL1       -0.3375
      2 C         140.1317  141.9060  170.0740 C.ar    1  UNL1        0.1567
      3 N         140.7164  142.4658  168.8112 N.ar    1  UNL1       -0.2245
      4 C         140.3536  141.5447  167.6843 C.ar    1  UNL1        0.0889
      5 C         140.6554  141.5882  166.2156 C.ar    1  UNL1        0.0151
      6 C         140.1482  140.5026  165.3132 C.ar    1  UNL1       -0.0232
      7 C         139.3393  139.3736  165.8795 C.ar    1  UNL1       -0.0241
      8 C         139.0375  139.3300  167.3482 C.ar    1  UNL1        0.0035
      9 C         139.5447  140.4156  168.2506 C.ar    1  UNL1        0.0494
     10 S         139.4075  140.6389  169.7275 S.2     1  UNL1       -0.0520
     11 C         138.7421  138.1992  165.1623 C.3     1  UNL1        0.0434
     12 C         138.8065  137.8639  163.7016 C.3     1  UNL1        0.0771
     13 N         139.4839  138.6202  162.5975 N.3     1  UNL1       -0.2670
     14 C         140.2642  139.8985  162.6812 C.3     1  UNL1        0.0771
     15 C         140.5599  140.7363  163.8898 C.3     1  UNL1        0.0434
     16 H         140.7490  143.3468  171.5703 H       1  UNL1        0.1442
     17 H         139.8294  142.0632  172.2141 H       1  UNL1        0.1442
     18 C         139.3653  138.0185  161.2286 C.3     1  UNL1        0.1187
     19 C         139.2619  138.9077  160.0249 C.ar    1  UNL1        0.0752
     20 C         140.3957  138.9787  159.0453 C.ar    1  UNL1        0.0161
     21 C         140.2924  139.8678  157.8417 C.ar    1  UNL1        0.0028
     22 C         139.0552  140.6859  157.6176 C.ar    1  UNL1        0.0207
     23 C         137.9214  140.6149  158.5971 C.ar    1  UNL1        0.0985
     24 N         138.0248  139.7258  159.8008 N.ar    1  UNL1       -0.2468
@<TRIPOS>BOND
     1     1     2    1
     2     2     3   ar
     3     3     4   ar
     4     4     5   ar
     5     5     6   ar
     6     6     7   ar
     7     7     8   ar
     8     8     9   ar
     9     9    10   ar
    10     7    11    1
    11    11    12    1
    12    12    13    1
    13    13    18    1
    14    18    19    1
    15    19    20   ar
    16    20    21   ar
    17    21    22   ar
    18    22    23   ar
    19    23    24   ar
    20    13    14    1
    21    14    15    1
    22    10     2   ar
    23    24    19   ar
    24     9     4   ar
    25    15     6    1
    26     1    16    1
    27     1    17    1
@<TRIPOS>MOLECULE
*****
 24 27 0 0 0
SMALL
GASTEIGER

@<TRIPOS>ATOM
      1 N         140.3721  140.2747  171.6813 N.pl3   1  UNL1       -0.3375
      2 C         140.7168  140.0868  170.2336 C.ar    1  UNL1        0.1567
      3 N         142.0435  139.6414  169.6937 N.ar    1  UNL1       -0.2245
      4 C         141.9419  139.5907  168.1981 C.ar    1  UNL1        0.0889
      5 C         142.9352  139.2210  167.1366 C.ar    1  UNL1        0.0151
      6 C         142.5390  139.2654  165.6905 C.ar    1  UNL1       -0.0232
      7 C         141.1496  139.6796  165.3060 C.ar    1  UNL1       -0.0241
      8 C         140.1563  140.0493  166.3674 C.ar    1  UNL1        0.0035
      9 C         140.5525  140.0049  167.8135 C.ar    1  UNL1        0.0494
     10 S         139.7953  140.3115  169.0715 S.2     1  UNL1       -0.0520
     11 C         140.5528  139.7910  163.9343 C.3     1  UNL1        0.0434
     12 C         141.1981  139.5157  162.6084 C.3     1  UNL1        0.0771
     13 N         142.5994  139.0610  162.3268 N.3     1  UNL1       -0.2670
     14 C         143.7018  138.7694  163.3014 C.3     1  UNL1        0.0771
     15 C         143.6749  138.8603  164.7984 C.3     1  UNL1        0.0434
     16 H         141.0487  140.1009  172.3750 H       1  UNL1        0.1442
     17 H         139.4692  140.5717  171.9378 H       1  UNL1        0.1442
     18 C         142.9442  138.8732  160.8791 C.3     1  UNL1        0.1187
     19 C         143.5234  140.0114  160.0922 C.ar    1  UNL1        0.0752
     20 C         143.7337  141.3449  160.7461 C.ar    1  UNL1        0.0161
     21 C         144.3129  142.4830  159.9593 C.ar    1  UNL1        0.0028
     22 C         144.6819  142.2876  158.5186 C.ar    1  UNL1        0.0207
     23 C         144.4717  140.9541  157.8646 C.ar    1  UNL1        0.0985
     24 N         143.8924  139.8160  158.6514 N.ar    1  UNL1       -0.2468
@<TRIPOS>BOND
     1     1     2    1
     2     2     3   ar
     3     3     4   ar
     4     4     5   ar
     5     5     6   ar
     6     6     7   ar
     7     7     8   ar
     8     8     9   ar
     9     9    10   ar
    10     7    11    1
    11    11    12    1
    12    12    13    1
    13    13    18    1
    14    18    19    1
    15    19    20   ar
    16    20    21   ar
    17    21    22   ar
    18    22    23   ar
    19    23    24   ar
    20    13    14    1
    21    14    15    1
    22    10     2   ar
    23    24    19   ar
    24     9     4   ar
    25    15     6    1
    26     1    16    1
    27     1    17    1
