@<TRIPOS>MOLECULE
*****
 32 35 0 0 0
SMALL
GASTEIGER

@<TRIPOS>ATOM
      1 N         141.4345  138.1013  157.9942 N.3     1  UNL1       -0.2688
      2 C         139.9854  138.2534  158.3509 C.3     1  UNL1        0.0741
      3 C         139.5936  138.6534  159.7425 C.3     1  UNL1        0.0369
      4 C         140.6507  138.9012  160.7773 C.3     1  UNL1        0.0747
      5 C         142.0997  138.7491  160.4207 C.3     1  UNL1        0.0369
      6 C         142.4916  138.3492  159.0291 C.3     1  UNL1        0.0741
      7 N         140.2589  139.3012  162.1689 N.am    1  UNL1       -0.2999
      8 C         140.3048  138.2942  163.2797 C.2     1  UNL1        0.2806
      9 O         140.7426  136.8873  162.9990 O.2     1  UNL1       -0.2668
     10 H         139.9715  140.2246  162.3531 H       1  UNL1        0.1498
     11 C         139.9129  138.6943  164.6713 C.ar    1  UNL1        0.2014
     12 C         138.6405  138.1734  165.2711 C.ar    1  UNL1        0.0843
     13 C         138.2486  138.5734  166.6626 C.ar    1  UNL1        0.2018
     14 O         136.9762  138.0525  167.2625 O.2     1  UNL1       -0.2864
     15 C         139.1290  139.4943  167.4544 C.ar    1  UNL1        0.0737
     16 C         138.7371  139.8942  168.8459 C.ar    1  UNL1        0.0085
     17 C         139.6176  140.8151  169.6376 C.ar    1  UNL1        0.0299
     18 C         140.8899  141.3360  169.0378 C.ar    1  UNL1        0.1432
     19 F         141.7704  142.2569  169.8295 F       1  UNL1       -0.2041
     20 C         141.2818  140.9360  167.6463 C.ar    1  UNL1        0.0672
     21 C         140.4014  140.0151  166.8546 C.ar    1  UNL1        0.1508
     22 O         140.7933  139.6151  165.4630 O.2     1  UNL1       -0.4486
     23 C         141.8263  137.7013  156.6026 C.3     1  UNL1        0.1014
     24 C         142.7023  133.3885  155.6636 C.ar    1  UNL1        0.1410
     25 C         143.6386  134.1713  156.5356 C.ar    1  UNL1        0.0368
     26 C         143.3466  135.6089  156.8486 C.ar    1  UNL1        0.0024
     27 C         142.1183  136.2637  156.2896 C.ar    1  UNL1        0.0216
     28 C         141.1820  135.4809  155.4176 C.ar    1  UNL1        0.1405
     29 F         139.9537  136.1357  154.8585 F       1  UNL1       -0.2044
     30 C         141.4740  134.0432  155.1045 C.ar    1  UNL1        0.0662
     31 C         143.1320  130.9541  156.4629 C.3     1  UNL1        0.2525
     32 O         142.9943  131.9508  155.3505 O.3     1  UNL1       -0.4714
@<TRIPOS>BOND
     1    31    32    1
     2    32    24    1
     3    24    25   ar
     4    25    26   ar
     5    26    27   ar
     6    27    23    1
     7    23     1    1
     8     1     2    1
     9     2     3    1
    10     3     4    1
    11     4     7    1
    12     7     8   am
    13     8     9    2
    14     8    11    1
    15    11    12   ar
    16    12    13   ar
    17    13    14    2
    18    13    15   ar
    19    15    16   ar
    20    16    17   ar
    21    17    18   ar
    22    18    19    1
    23    18    20   ar
    24    20    21   ar
    25    21    22   ar
    26     4     5    1
    27     5     6    1
    28    27    28   ar
    29    28    29    1
    30    28    30   ar
    31    30    24   ar
    32     6     1    1
    33    22    11   ar
    34    21    15   ar
    35     7    10    1
@<TRIPOS>MOLECULE
*****
 32 35 0 0 0
SMALL
GASTEIGER

@<TRIPOS>ATOM
      1 N         138.6619  138.9392  165.3974 N.3     1  UNL1       -0.2688
      2 C         138.2225  139.9503  164.3803 C.3     1  UNL1        0.0741
      3 C         138.4802  139.7085  162.9224 C.3     1  UNL1        0.0369
      4 C         139.1772  138.4555  162.4818 C.3     1  UNL1        0.0747
      5 C         139.6165  137.4443  163.4989 C.3     1  UNL1        0.0369
      6 C         139.3589  137.6861  164.9567 C.3     1  UNL1        0.0741
      7 N         139.4348  138.2137  161.0241 N.am    1  UNL1       -0.2999
      8 C         140.7521  138.6020  160.4207 C.2     1  UNL1        0.2806
      9 O         141.8117  139.2321  161.2751 O.2     1  UNL1       -0.2668
     10 H         138.7393  137.8001  160.4633 H       1  UNL1        0.1498
     11 C         141.0097  138.3601  158.9629 C.ar    1  UNL1        0.2014
     12 C         142.3948  138.5191  158.4096 C.ar    1  UNL1        0.0843
     13 C         142.6524  138.2773  156.9518 C.ar    1  UNL1        0.2018
     14 O         144.0376  138.4362  156.3985 O.2     1  UNL1       -0.2864
     15 C         141.5249  137.8764  156.0473 C.ar    1  UNL1        0.0737
     16 C         141.7826  137.6346  154.5895 C.ar    1  UNL1        0.0085
     17 C         140.6551  137.2338  153.6851 C.ar    1  UNL1        0.0299
     18 C         139.2699  137.0748  154.2384 C.ar    1  UNL1        0.1432
     19 F         138.1424  136.6740  153.3339 F       1  UNL1       -0.2041
     20 C         139.0123  137.3166  155.6961 C.ar    1  UNL1        0.0672
     21 C         140.1398  137.7174  156.6006 C.ar    1  UNL1        0.1508
     22 O         139.8822  137.9593  158.0584 O.2     1  UNL1       -0.4486
     23 C         138.4042  139.1810  166.8552 C.3     1  UNL1        0.1014
     24 C         141.3453  141.5562  169.2961 C.ar    1  UNL1        0.1410
     25 C         141.6151  141.2933  167.8442 C.ar    1  UNL1        0.0368
     26 C         140.6347  140.5016  167.0306 C.ar    1  UNL1        0.0024
     27 C         139.3846  139.9727  167.6688 C.ar    1  UNL1        0.0216
     28 C         139.1148  140.2356  169.1207 C.ar    1  UNL1        0.1405
     29 F         137.8646  139.7067  169.7591 F       1  UNL1       -0.2044
     30 C         140.0952  141.0273  169.9344 C.ar    1  UNL1        0.0662
     31 C         143.7896  142.2861  169.7888 C.3     1  UNL1        0.2525
     32 O         142.3257  142.3479  170.1098 O.3     1  UNL1       -0.4714
@<TRIPOS>BOND
     1    31    32    1
     2    32    24    1
     3    24    25   ar
     4    25    26   ar
     5    26    27   ar
     6    27    23    1
     7    23     1    1
     8     1     2    1
     9     2     3    1
    10     3     4    1
    11     4     7    1
    12     7     8   am
    13     8     9    2
    14     8    11    1
    15    11    12   ar
    16    12    13   ar
    17    13    14    2
    18    13    15   ar
    19    15    16   ar
    20    16    17   ar
    21    17    18   ar
    22    18    19    1
    23    18    20   ar
    24    20    21   ar
    25    21    22   ar
    26     4     5    1
    27     5     6    1
    28    27    28   ar
    29    28    29    1
    30    28    30   ar
    31    30    24   ar
    32     6     1    1
    33    22    11   ar
    34    21    15   ar
    35     7    10    1
@<TRIPOS>MOLECULE
*****
 32 35 0 0 0
SMALL
GASTEIGER

@<TRIPOS>ATOM
      1 N         138.4720  139.0060  165.8968 N.3     1  UNL1       -0.2688
      2 C         138.1638  140.0832  164.8995 C.3     1  UNL1        0.0741
      3 C         138.3572  139.8265  163.4343 C.3     1  UNL1        0.0369
      4 C         138.8587  138.4925  162.9664 C.3     1  UNL1        0.0747
      5 C         139.1669  137.4152  163.9637 C.3     1  UNL1        0.0369
      6 C         138.9736  137.6719  165.4288 C.3     1  UNL1        0.0741
      7 N         139.0520  138.2358  161.5013 N.am    1  UNL1       -0.2999
      8 C         140.2091  138.8577  160.7772 C.2     1  UNL1        0.2806
      9 O         141.1729  139.7362  161.5182 O.2     1  UNL1       -0.2668
     10 H         138.4194  137.6592  161.0149 H       1  UNL1        0.1498
     11 C         140.4024  138.6009  159.3119 C.ar    1  UNL1        0.2014
     12 C         139.3548  139.0348  158.3299 C.ar    1  UNL1        0.0843
     13 C         139.5480  138.7781  156.8648 C.ar    1  UNL1        0.2018
     14 O         138.5004  139.2120  155.8828 O.2     1  UNL1       -0.2864
     15 C         140.7889  138.0875  156.3816 C.ar    1  UNL1        0.0737
     16 C         140.9821  137.8308  154.9164 C.ar    1  UNL1        0.0085
     17 C         142.2229  137.1402  154.4333 C.ar    1  UNL1        0.0299
     18 C         143.2704  136.7063  155.4153 C.ar    1  UNL1        0.1432
     19 F         144.5113  136.0157  154.9320 F       1  UNL1       -0.2041
     20 C         143.0772  136.9630  156.8804 C.ar    1  UNL1        0.0672
     21 C         141.8364  137.6536  157.3636 C.ar    1  UNL1        0.1508
     22 O         141.6432  137.9104  158.8288 O.2     1  UNL1       -0.4486
     23 C         138.2787  139.2626  167.3619 C.3     1  UNL1        0.1014
     24 C         141.4455  141.4417  169.7015 C.ar    1  UNL1        0.1410
     25 C         141.6890  141.0799  168.2663 C.ar    1  UNL1        0.0368
     26 C         140.6334  140.3536  167.4865 C.ar    1  UNL1        0.0024
     27 C         139.3343  139.9890  168.1418 C.ar    1  UNL1        0.0216
     28 C         139.0909  140.3507  169.5770 C.ar    1  UNL1        0.1405
     29 F         137.7918  139.9862  170.2324 F       1  UNL1       -0.2044
     30 C         140.1464  141.0771  170.3568 C.ar    1  UNL1        0.0662
     31 C         143.8735  142.3442  169.9022 C.3     1  UNL1        0.2525
     32 O         142.5011  142.1680  170.4814 O.3     1  UNL1       -0.4714
@<TRIPOS>BOND
     1    31    32    1
     2    32    24    1
     3    24    25   ar
     4    25    26   ar
     5    26    27   ar
     6    27    23    1
     7    23     1    1
     8     1     2    1
     9     2     3    1
    10     3     4    1
    11     4     7    1
    12     7     8   am
    13     8     9    2
    14     8    11    1
    15    11    12   ar
    16    12    13   ar
    17    13    14    2
    18    13    15   ar
    19    15    16   ar
    20    16    17   ar
    21    17    18   ar
    22    18    19    1
    23    18    20   ar
    24    20    21   ar
    25    21    22   ar
    26     4     5    1
    27     5     6    1
    28    27    28   ar
    29    28    29    1
    30    28    30   ar
    31    30    24   ar
    32     6     1    1
    33    22    11   ar
    34    21    15   ar
    35     7    10    1
@<TRIPOS>MOLECULE
*****
 32 35 0 0 0
SMALL
GASTEIGER

@<TRIPOS>ATOM
      1 N         138.6892  139.0108  164.1936 N.3     1  UNL1       -0.2688
      2 C         138.8470  137.9727  163.1225 C.3     1  UNL1        0.0741
      3 C         138.3857  138.2612  161.7246 C.3     1  UNL1        0.0369
      4 C         137.7667  139.5879  161.3978 C.3     1  UNL1        0.0747
      5 C         137.6089  140.6260  162.4690 C.3     1  UNL1        0.0369
      6 C         138.0701  140.3375  163.8668 C.3     1  UNL1        0.0741
      7 N         137.3055  139.8763  160.0000 N.am    1  UNL1       -0.2999
      8 C         138.1464  140.7248  159.0929 C.2     1  UNL1        0.2806
      9 O         139.4485  141.2849  159.5836 O.2     1  UNL1       -0.2668
     10 H         136.4509  139.5088  159.6779 H       1  UNL1        0.1498
     11 C         137.6852  141.0133  157.6949 C.ar    1  UNL1        0.2014
     12 C         137.4033  142.4253  157.2745 C.ar    1  UNL1        0.0843
     13 C         136.9421  142.7138  155.8767 C.ar    1  UNL1        0.2018
     14 O         136.6602  144.1259  155.4563 O.2     1  UNL1       -0.2864
     15 C         136.7627  141.5903  154.8992 C.ar    1  UNL1        0.0737
     16 C         136.3014  141.8788  153.5014 C.ar    1  UNL1        0.0085
     17 C         136.1220  140.7552  152.5239 C.ar    1  UNL1        0.0299
     18 C         136.4039  139.3432  152.9443 C.ar    1  UNL1        0.1432
     19 F         136.2244  138.2196  151.9668 F       1  UNL1       -0.2041
     20 C         136.8651  139.0547  154.3421 C.ar    1  UNL1        0.0672
     21 C         137.0445  140.1782  155.3196 C.ar    1  UNL1        0.1508
     22 O         137.5058  139.8898  156.7175 O.2     1  UNL1       -0.4486
     23 C         139.1504  138.7224  165.5915 C.3     1  UNL1        0.1014
     24 C         142.2530  141.3471  167.5239 C.ar    1  UNL1        0.1410
     25 C         140.8926  141.2146  168.1417 C.ar    1  UNL1        0.0368
     26 C         139.8584  140.3397  167.4975 C.ar    1  UNL1        0.0024
     27 C         140.1846  139.5973  166.2356 C.ar    1  UNL1        0.0216
     28 C         141.5450  139.7299  165.6179 C.ar    1  UNL1        0.1405
     29 F         141.8712  138.9875  164.3559 F       1  UNL1       -0.2044
     30 C         142.5792  140.6048  166.2620 C.ar    1  UNL1        0.0662
     31 C         143.4606  142.2060  169.6579 C.3     1  UNL1        0.2525
     32 O         143.2872  142.2221  168.1681 O.3     1  UNL1       -0.4714
@<TRIPOS>BOND
     1    31    32    1
     2    32    24    1
     3    24    25   ar
     4    25    26   ar
     5    26    27   ar
     6    27    23    1
     7    23     1    1
     8     1     2    1
     9     2     3    1
    10     3     4    1
    11     4     7    1
    12     7     8   am
    13     8     9    2
    14     8    11    1
    15    11    12   ar
    16    12    13   ar
    17    13    14    2
    18    13    15   ar
    19    15    16   ar
    20    16    17   ar
    21    17    18   ar
    22    18    19    1
    23    18    20   ar
    24    20    21   ar
    25    21    22   ar
    26     4     5    1
    27     5     6    1
    28    27    28   ar
    29    28    29    1
    30    28    30   ar
    31    30    24   ar
    32     6     1    1
    33    22    11   ar
    34    21    15   ar
    35     7    10    1
@<TRIPOS>MOLECULE
*****
 32 35 0 0 0
SMALL
GASTEIGER

@<TRIPOS>ATOM
      1 N         142.3752  141.8263  162.9238 N.3     1  UNL1       -0.2688
      2 C         141.3449  141.9850  161.8453 C.3     1  UNL1        0.0741
      3 C         141.1304  140.8874  160.8456 C.3     1  UNL1        0.0369
      4 C         141.9463  139.6312  160.9244 C.3     1  UNL1        0.0747
      5 C         142.9767  139.4725  162.0029 C.3     1  UNL1        0.0369
      6 C         143.1911  140.5700  163.0026 C.3     1  UNL1        0.0741
      7 N         141.7318  138.5337  159.9248 N.am    1  UNL1       -0.2999
      8 C         142.6232  138.4292  158.7229 C.2     1  UNL1        0.2806
      9 O         143.7291  139.4222  158.5207 O.2     1  UNL1       -0.2668
     10 H         141.0060  137.8819  160.0574 H       1  UNL1        0.1498
     11 C         142.4087  137.3316  157.7232 C.ar    1  UNL1        0.2014
     12 C         141.2747  137.4189  156.7453 C.ar    1  UNL1        0.0843
     13 C         141.0602  136.3214  155.7456 C.ar    1  UNL1        0.2018
     14 O         139.9261  136.4088  154.7677 O.2     1  UNL1       -0.2864
     15 C         141.9797  135.1364  155.7238 C.ar    1  UNL1        0.0737
     16 C         141.7651  134.0389  154.7241 C.ar    1  UNL1        0.0085
     17 C         142.6846  132.8540  154.7024 C.ar    1  UNL1        0.0299
     18 C         143.8186  132.7667  155.6803 C.ar    1  UNL1        0.1432
     19 F         144.7381  131.5817  155.6585 F       1  UNL1       -0.2041
     20 C         144.0332  133.8642  156.6800 C.ar    1  UNL1        0.0672
     21 C         143.1137  135.0491  156.7017 C.ar    1  UNL1        0.1508
     22 O         143.3282  136.1467  157.7014 O.2     1  UNL1       -0.4486
     23 C         142.5897  142.9238  163.9235 C.3     1  UNL1        0.1014
     24 C         141.5227  142.2703  168.2460 C.ar    1  UNL1        0.1410
     25 C         142.9481  142.1408  167.7975 C.ar    1  UNL1        0.0368
     26 C         143.3038  142.3586  166.3567 C.ar    1  UNL1        0.0024
     27 C         142.2340  142.7060  165.3643 C.ar    1  UNL1        0.0216
     28 C         140.8085  142.8355  165.8128 C.ar    1  UNL1        0.1405
     29 F         139.7386  143.1829  164.8205 F       1  UNL1       -0.2044
     30 C         140.4529  142.6176  167.2537 C.ar    1  UNL1        0.0662
     31 C         140.0236  142.8057  170.2993 C.3     1  UNL1        0.2525
     32 O         141.1670  142.0524  169.6869 O.3     1  UNL1       -0.4714
@<TRIPOS>BOND
     1    31    32    1
     2    32    24    1
     3    24    25   ar
     4    25    26   ar
     5    26    27   ar
     6    27    23    1
     7    23     1    1
     8     1     2    1
     9     2     3    1
    10     3     4    1
    11     4     7    1
    12     7     8   am
    13     8     9    2
    14     8    11    1
    15    11    12   ar
    16    12    13   ar
    17    13    14    2
    18    13    15   ar
    19    15    16   ar
    20    16    17   ar
    21    17    18   ar
    22    18    19    1
    23    18    20   ar
    24    20    21   ar
    25    21    22   ar
    26     4     5    1
    27     5     6    1
    28    27    28   ar
    29    28    29    1
    30    28    30   ar
    31    30    24   ar
    32     6     1    1
    33    22    11   ar
    34    21    15   ar
    35     7    10    1
@<TRIPOS>MOLECULE
*****
 32 35 0 0 0
SMALL
GASTEIGER

@<TRIPOS>ATOM
      1 N         143.0626  140.3859  163.5974 N.3     1  UNL1       -0.2688
      2 C         141.7368  140.1654  162.9313 C.3     1  UNL1        0.0741
      3 C         141.6068  139.1460  161.8386 C.3     1  UNL1        0.0369
      4 C         142.8025  138.3471  161.4121 C.3     1  UNL1        0.0747
      5 C         144.1282  138.5675  162.0782 C.3     1  UNL1        0.0369
      6 C         144.2583  139.5869  163.1708 C.3     1  UNL1        0.0741
      7 N         142.6724  137.3277  160.3194 N.am    1  UNL1       -0.2999
      8 C         142.6700  137.7630  158.8840 C.2     1  UNL1        0.2806
      9 O         142.7977  139.2177  158.5412 O.2     1  UNL1       -0.2668
     10 H         142.5886  136.3729  160.5444 H       1  UNL1        0.1498
     11 C         142.5399  136.7436  157.7913 C.ar    1  UNL1        0.2014
     12 C         141.5465  136.9507  156.6867 C.ar    1  UNL1        0.0843
     13 C         141.4164  135.9314  155.5941 C.ar    1  UNL1        0.2018
     14 O         140.4229  136.1385  154.4895 O.2     1  UNL1       -0.2864
     15 C         142.2797  134.7048  155.6060 C.ar    1  UNL1        0.0737
     16 C         142.1496  133.6854  154.5133 C.ar    1  UNL1        0.0085
     17 C         143.0130  132.4589  154.5253 C.ar    1  UNL1        0.0299
     18 C         144.0065  132.2517  155.6298 C.ar    1  UNL1        0.1432
     19 F         144.8699  131.0251  155.6417 F       1  UNL1       -0.2041
     20 C         144.1366  133.2711  156.7225 C.ar    1  UNL1        0.0672
     21 C         143.2732  134.4976  156.7105 C.ar    1  UNL1        0.1508
     22 O         143.4033  135.5171  157.8032 O.2     1  UNL1       -0.4486
     23 C         143.1926  141.4052  164.6901 C.3     1  UNL1        0.1014
     24 C         140.8504  140.9282  168.5027 C.ar    1  UNL1        0.1410
     25 C         140.6311  142.1306  167.6332 C.ar    1  UNL1        0.0368
     26 C         141.4118  142.2896  166.3623 C.ar    1  UNL1        0.0024
     27 C         142.4119  141.2462  165.9610 C.ar    1  UNL1        0.0216
     28 C         142.6312  140.0438  166.8305 C.ar    1  UNL1        0.1405
     29 F         143.6313  139.0003  166.4291 F       1  UNL1       -0.2044
     30 C         141.8505  139.8848  168.1013 C.ar    1  UNL1        0.0662
     31 C         140.7784  140.7794  171.0955 C.3     1  UNL1        0.2525
     32 O         140.0697  140.7692  169.7736 O.3     1  UNL1       -0.4714
@<TRIPOS>BOND
     1    31    32    1
     2    32    24    1
     3    24    25   ar
     4    25    26   ar
     5    26    27   ar
     6    27    23    1
     7    23     1    1
     8     1     2    1
     9     2     3    1
    10     3     4    1
    11     4     7    1
    12     7     8   am
    13     8     9    2
    14     8    11    1
    15    11    12   ar
    16    12    13   ar
    17    13    14    2
    18    13    15   ar
    19    15    16   ar
    20    16    17   ar
    21    17    18   ar
    22    18    19    1
    23    18    20   ar
    24    20    21   ar
    25    21    22   ar
    26     4     5    1
    27     5     6    1
    28    27    28   ar
    29    28    29    1
    30    28    30   ar
    31    30    24   ar
    32     6     1    1
    33    22    11   ar
    34    21    15   ar
    35     7    10    1
@<TRIPOS>MOLECULE
*****
 32 35 0 0 0
SMALL
GASTEIGER

@<TRIPOS>ATOM
      1 N         140.4789  145.5228  155.9616 N.3     1  UNL1       -0.2688
      2 C         141.7294  145.9754  156.6555 C.3     1  UNL1        0.0741
      3 C         142.0843  145.4167  158.0016 C.3     1  UNL1        0.0369
      4 C         141.1888  144.4054  158.6537 C.3     1  UNL1        0.0747
      5 C         139.9384  143.9527  157.9598 C.3     1  UNL1        0.0369
      6 C         139.5834  144.5114  156.6137 C.3     1  UNL1        0.0741
      7 N         141.5437  143.8467  159.9997 N.am    1  UNL1       -0.2999
      8 C         141.0750  144.5377  161.2459 C.2     1  UNL1        0.2806
      9 O         140.2514  145.7873  161.1460 O.2     1  UNL1       -0.2668
     10 H         142.0843  143.0265  160.0653 H       1  UNL1        0.1498
     11 C         141.4300  143.9789  162.5920 C.ar    1  UNL1        0.2014
     12 C         142.7790  144.2556  163.1868 C.ar    1  UNL1        0.0843
     13 C         143.1340  143.6969  164.5328 C.ar    1  UNL1        0.2018
     14 O         144.4829  143.9736  165.1277 O.2     1  UNL1       -0.2864
     15 C         142.1400  142.8615  165.2841 C.ar    1  UNL1        0.0737
     16 C         142.4951  142.3028  166.6301 C.ar    1  UNL1        0.0085
     17 C         141.5012  141.4674  167.3812 C.ar    1  UNL1        0.0299
     18 C         140.1522  141.1908  166.7864 C.ar    1  UNL1        0.1432
     19 F         139.1583  140.3553  167.5376 F       1  UNL1       -0.2041
     20 C         139.7972  141.7494  165.4403 C.ar    1  UNL1        0.0672
     21 C         140.7911  142.5848  164.6892 C.ar    1  UNL1        0.1508
     22 O         140.4361  143.1435  163.3431 O.2     1  UNL1       -0.4486
     23 C         140.1240  146.0815  154.6155 C.3     1  UNL1        0.1014
     24 C         139.3653  150.4913  154.1385 C.ar    1  UNL1        0.1410
     25 C         140.1532  149.7492  153.1001 C.ar    1  UNL1        0.0368
     26 C         140.4061  148.2792  153.2591 C.ar    1  UNL1        0.0024
     27 C         139.8711  147.5514  154.4565 C.ar    1  UNL1        0.0216
     28 C         139.0832  148.2935  155.4950 C.ar    1  UNL1        0.1405
     29 F         138.5481  147.5657  156.6925 F       1  UNL1       -0.2044
     30 C         138.8303  149.7635  155.3360 C.ar    1  UNL1        0.0662
     31 C         138.5669  152.7570  155.1281 C.3     1  UNL1        0.2525
     32 O         139.1124  151.9613  153.9795 O.3     1  UNL1       -0.4714
@<TRIPOS>BOND
     1    31    32    1
     2    32    24    1
     3    24    25   ar
     4    25    26   ar
     5    26    27   ar
     6    27    23    1
     7    23     1    1
     8     1     2    1
     9     2     3    1
    10     3     4    1
    11     4     7    1
    12     7     8   am
    13     8     9    2
    14     8    11    1
    15    11    12   ar
    16    12    13   ar
    17    13    14    2
    18    13    15   ar
    19    15    16   ar
    20    16    17   ar
    21    17    18   ar
    22    18    19    1
    23    18    20   ar
    24    20    21   ar
    25    21    22   ar
    26     4     5    1
    27     5     6    1
    28    27    28   ar
    29    28    29    1
    30    28    30   ar
    31    30    24   ar
    32     6     1    1
    33    22    11   ar
    34    21    15   ar
    35     7    10    1
@<TRIPOS>MOLECULE
*****
 32 35 0 0 0
SMALL
GASTEIGER

@<TRIPOS>ATOM
      1 N         141.8240  138.1692  162.0598 N.3     1  UNL1       -0.2688
      2 C         143.3008  138.0583  161.8218 C.3     1  UNL1        0.0741
      3 C         143.9662  138.9448  160.8110 C.3     1  UNL1        0.0369
      4 C         143.1547  139.9420  160.0384 C.3     1  UNL1        0.0747
      5 C         141.6779  140.0529  160.2764 C.3     1  UNL1        0.0369
      6 C         141.0125  139.1665  161.2871 C.3     1  UNL1        0.0741
      7 N         143.8201  140.8284  159.0277 N.am    1  UNL1       -0.2999
      8 C         144.0606  140.3281  157.6342 C.2     1  UNL1        0.2806
      9 O         143.6357  138.9415  157.2513 O.2     1  UNL1       -0.2668
     10 H         144.0991  141.7385  159.2789 H       1  UNL1        0.1498
     11 C         144.7261  141.2146  156.6234 C.ar    1  UNL1        0.2014
     12 C         143.9254  142.2512  155.8924 C.ar    1  UNL1        0.0843
     13 C         144.5908  143.1376  154.8817 C.ar    1  UNL1        0.2018
     14 O         143.7901  144.1742  154.1507 O.2     1  UNL1       -0.2864
     15 C         146.0569  142.9875  154.6021 C.ar    1  UNL1        0.0737
     16 C         146.7222  143.8739  153.5914 C.ar    1  UNL1        0.0085
     17 C         148.1882  143.7237  153.3118 C.ar    1  UNL1        0.0299
     18 C         148.9889  142.6871  154.0428 C.ar    1  UNL1        0.1432
     19 F         150.4549  142.5370  153.7632 F       1  UNL1       -0.2041
     20 C         148.3235  141.8007  155.0535 C.ar    1  UNL1        0.0672
     21 C         146.8575  141.9509  155.3331 C.ar    1  UNL1        0.1508
     22 O         146.1921  141.0644  156.3438 O.2     1  UNL1       -0.4486
     23 C         141.1586  137.2828  163.0705 C.3     1  UNL1        0.1014
     24 C         139.3807  139.0637  166.8012 C.ar    1  UNL1        0.1410
     25 C         138.5110  138.3015  165.8459 C.ar    1  UNL1        0.0368
     26 C         139.1036  137.7079  164.6024 C.ar    1  UNL1        0.0024
     27 C         140.5659  137.8765  164.3141 C.ar    1  UNL1        0.0216
     28 C         141.4356  138.6387  165.2693 C.ar    1  UNL1        0.1405
     29 F         142.8980  138.8074  164.9811 F       1  UNL1       -0.2044
     30 C         140.8430  139.2323  166.5129 C.ar    1  UNL1        0.0662
     31 C         139.6287  140.5208  168.9378 C.3     1  UNL1        0.2525
     32 O         138.7881  139.6573  168.0447 O.3     1  UNL1       -0.4714
@<TRIPOS>BOND
     1    31    32    1
     2    32    24    1
     3    24    25   ar
     4    25    26   ar
     5    26    27   ar
     6    27    23    1
     7    23     1    1
     8     1     2    1
     9     2     3    1
    10     3     4    1
    11     4     7    1
    12     7     8   am
    13     8     9    2
    14     8    11    1
    15    11    12   ar
    16    12    13   ar
    17    13    14    2
    18    13    15   ar
    19    15    16   ar
    20    16    17   ar
    21    17    18   ar
    22    18    19    1
    23    18    20   ar
    24    20    21   ar
    25    21    22   ar
    26     4     5    1
    27     5     6    1
    28    27    28   ar
    29    28    29    1
    30    28    30   ar
    31    30    24   ar
    32     6     1    1
    33    22    11   ar
    34    21    15   ar
    35     7    10    1
@<TRIPOS>MOLECULE
*****
 32 35 0 0 0
SMALL
GASTEIGER

@<TRIPOS>ATOM
      1 N         140.2275  146.5332  155.8529 N.3     1  UNL1       -0.2688
      2 C         139.6526  146.5286  157.2383 C.3     1  UNL1        0.0741
      3 C         140.3423  145.7711  158.3340 C.3     1  UNL1        0.0369
      4 C         141.6069  145.0183  158.0443 C.3     1  UNL1        0.0747
      5 C         142.1819  145.0229  156.6589 C.3     1  UNL1        0.0369
      6 C         141.4922  145.7804  155.5632 C.3     1  UNL1        0.0741
      7 N         142.2966  144.2608  159.1400 N.am    1  UNL1       -0.2999
      8 C         141.7281  142.9604  159.6256 C.2     1  UNL1        0.2806
      9 O         140.4700  142.4175  159.0155 O.2     1  UNL1       -0.2668
     10 H         143.1224  144.6172  159.5404 H       1  UNL1        0.1498
     11 C         142.4179  142.2030  160.7213 C.ar    1  UNL1        0.2014
     12 C         143.8611  142.4744  161.0272 C.ar    1  UNL1        0.0843
     13 C         144.5508  141.7170  162.1229 C.ar    1  UNL1        0.2018
     14 O         145.9940  141.9884  162.4287 O.2     1  UNL1       -0.2864
     15 C         143.7974  140.6882  162.9128 C.ar    1  UNL1        0.0737
     16 C         144.4871  139.9308  164.0085 C.ar    1  UNL1        0.0085
     17 C         143.7337  138.9020  164.7983 C.ar    1  UNL1        0.0299
     18 C         142.2905  138.6306  164.4925 C.ar    1  UNL1        0.1432
     19 F         141.5370  137.6018  165.2824 F       1  UNL1       -0.2041
     20 C         141.6007  139.3880  163.3968 C.ar    1  UNL1        0.0672
     21 C         142.3542  140.4168  162.6069 C.ar    1  UNL1        0.1508
     22 O         141.6644  141.1742  161.5112 O.2     1  UNL1       -0.4486
     23 C         139.5379  147.2907  154.7572 C.3     1  UNL1        0.1014
     24 C         139.5064  151.7903  154.8073 C.ar    1  UNL1        0.1410
     25 C         138.6012  151.0237  155.7253 C.ar    1  UNL1        0.0368
     26 C         138.6117  149.5238  155.7086 C.ar    1  UNL1        0.0024
     27 C         139.5274  148.7906  154.7739 C.ar    1  UNL1        0.0216
     28 C         140.4326  149.5572  153.8559 C.ar    1  UNL1        0.1405
     29 F         141.3484  148.8239  152.9211 F       1  UNL1       -0.2044
     30 C         140.4221  151.0570  153.8726 C.ar    1  UNL1        0.0662
     31 C         138.3039  154.0377  154.3043 C.3     1  UNL1        0.2525
     32 O         139.4959  153.2902  154.8240 O.3     1  UNL1       -0.4714
@<TRIPOS>BOND
     1    31    32    1
     2    32    24    1
     3    24    25   ar
     4    25    26   ar
     5    26    27   ar
     6    27    23    1
     7    23     1    1
     8     1     2    1
     9     2     3    1
    10     3     4    1
    11     4     7    1
    12     7     8   am
    13     8     9    2
    14     8    11    1
    15    11    12   ar
    16    12    13   ar
    17    13    14    2
    18    13    15   ar
    19    15    16   ar
    20    16    17   ar
    21    17    18   ar
    22    18    19    1
    23    18    20   ar
    24    20    21   ar
    25    21    22   ar
    26     4     5    1
    27     5     6    1
    28    27    28   ar
    29    28    29    1
    30    28    30   ar
    31    30    24   ar
    32     6     1    1
    33    22    11   ar
    34    21    15   ar
    35     7    10    1
