@<TRIPOS>MOLECULE
*****
 40 43 0 0 0
SMALL
GASTEIGER

@<TRIPOS>ATOM
      1 C         143.1028  141.1681  168.5364 C.ar    1  UNL1        0.0807
      2 C         143.1695  142.0764  167.3445 C.ar    1  UNL1        0.0194
      3 C         143.0583  141.5077  165.9610 C.ar    1  UNL1        0.0375
      4 C         142.8804  140.0306  165.7693 C.ar    1  UNL1        0.1559
      5 N         142.8137  139.1223  166.9611 N.ar    1  UNL1       -0.1331
      6 N         142.9249  139.6910  168.3446 N.ar    1  UNL1       -0.1512
      7 N         142.7692  139.4620  164.3857 N.am    1  UNL1       -0.2676
      8 C         144.0091  139.1410  163.6049 C.2     1  UNL1        0.2332
      9 O         145.3601  139.3888  164.2076 O.2     1  UNL1       -0.2743
     10 H         141.8825  139.2994  163.9901 H       1  UNL1        0.1563
     11 C         143.8979  138.5723  162.2213 C.3     1  UNL1        0.1311
     12 C         143.7387  139.4885  161.0444 C.ar    1  UNL1        0.0708
     13 C         143.7191  140.9745  161.2480 C.ar    1  UNL1        0.0521
     14 C         143.5598  141.8907  160.0711 C.ar    1  UNL1        0.1407
     15 C         143.4202  141.3210  158.6905 C.ar    1  UNL1        0.0516
     16 C         143.4398  139.8350  158.4869 C.ar    1  UNL1        0.0620
     17 C         143.3001  139.2652  157.1064 C.3     1  UNL1        0.0522
     18 N         143.5990  138.9188  159.6639 N.ar    1  UNL1       -0.2533
     19 O         143.5403  143.3767  160.2746 O.3     1  UNL1       -0.4787
     20 C         143.3264  143.9430  161.6471 C.3     1  UNL1        0.1768
     21 C         142.1362  144.4268  162.4213 C.3     1  UNL1        0.1103
     22 C         143.0240  144.7437  163.5880 C.3     1  UNL1        0.2709
     23 F         143.9117  145.0607  164.7548 F       1  UNL1       -0.2041
     24 F         141.8337  145.2275  164.3622 F       1  UNL1       -0.2041
     25 C         144.2142  144.2599  162.8139 C.3     1  UNL1        0.1103
     26 C         143.2140  141.7368  169.9200 C.3     1  UNL1        0.0505
     27 C         142.0553  141.6369  170.8672 C.3     1  UNL1        0.0437
     28 C         140.7648  141.0225  170.4117 C.3     1  UNL1        0.1856
     29 F         140.2901  139.7367  171.0210 F       1  UNL1       -0.2351
     30 C         139.9492  141.6940  169.3469 C.3     1  UNL1        0.1643
     31 C         139.2803  140.4644  165.7267 C.ar    1  UNL1        0.1762
     32 C         139.6742  141.5425  166.6924 C.ar    1  UNL1        0.1223
     33 N         139.6289  140.9647  168.0759 N.ar    1  UNL1       -0.2272
     34 N         139.2070  139.5295  167.9653 N.ar    1  UNL1       -0.0636
     35 N         138.9915  139.2203  166.5134 N.ar    1  UNL1       -0.1241
     36 C         137.8207  140.4193  162.0365 C.3     1  UNL1        0.1110
     37 N         137.9101  140.2781  163.5271 N.am    1  UNL1       -0.2978
     38 C         139.1909  140.6056  164.2360 C.2     1  UNL1        0.2670
     39 O         140.3821  141.0742  163.4542 O.2     1  UNL1       -0.2684
     40 H         137.1282  139.9705  164.0402 H       1  UNL1        0.1498
@<TRIPOS>BOND
     1    36    37    1
     2    37    38   am
     3    38    39    2
     4    38    31    1
     5    31    32   ar
     6    32    33   ar
     7    33    30    1
     8    30    28    1
     9    28    29    1
    10    28    27    1
    11    27    26    1
    12    26     1    1
    13     1     2   ar
    14     2     3   ar
    15     3     4   ar
    16     4     7    1
    17     7     8   am
    18     8     9    2
    19     8    11    1
    20    11    12    1
    21    12    13   ar
    22    13    14   ar
    23    14    19    1
    24    19    20    1
    25    20    21    1
    26    21    22    1
    27    22    23    1
    28    22    24    1
    29    22    25    1
    30    14    15   ar
    31    15    16   ar
    32    16    17    1
    33    16    18   ar
    34     4     5   ar
    35     5     6   ar
    36    33    34   ar
    37    34    35   ar
    38    35    31   ar
    39     6     1   ar
    40    18    12   ar
    41    25    20    1
    42    37    40    1
    43     7    10    1
@<TRIPOS>MOLECULE
*****
 40 43 0 0 0
SMALL
GASTEIGER

@<TRIPOS>ATOM
      1 C         139.2930  142.8570  157.8864 C.ar    1  UNL1        0.0807
      2 C         140.5357  142.0175  157.9176 C.ar    1  UNL1        0.0194
      3 C         140.8084  141.1248  159.0918 C.ar    1  UNL1        0.0375
      4 C         139.8385  141.0716  160.2347 C.ar    1  UNL1        0.1559
      5 N         138.5958  141.9111  160.2035 N.ar    1  UNL1       -0.1331
      6 N         138.3231  142.8038  159.0294 N.ar    1  UNL1       -0.1512
      7 N         140.1112  140.1788  161.4089 N.am    1  UNL1       -0.2676
      8 C         139.8253  138.7093  161.3162 C.2     1  UNL1        0.2332
      9 O         139.2665  138.1324  160.0493 O.2     1  UNL1       -0.2743
     10 H         140.4780  140.5574  162.2404 H       1  UNL1        0.1563
     11 C         140.0980  137.8166  162.4904 C.3     1  UNL1        0.1311
     12 C         140.0946  138.3824  163.8795 C.ar    1  UNL1        0.0708
     13 C         141.3070  139.0940  164.4026 C.ar    1  UNL1        0.0521
     14 C         141.3036  139.6598  165.7917 C.ar    1  UNL1        0.1407
     15 C         140.0876  139.5141  166.6579 C.ar    1  UNL1        0.0516
     16 C         138.8751  138.8025  166.1349 C.ar    1  UNL1        0.0620
     17 C         137.6591  138.6568  167.0010 C.3     1  UNL1        0.0522
     18 N         138.8786  138.2367  164.7456 N.ar    1  UNL1       -0.2533
     19 O         142.5160  140.3713  166.3148 O.3     1  UNL1       -0.4787
     20 C         143.1923  141.4158  165.4771 C.3     1  UNL1        0.1768
     21 C         144.2831  141.4071  164.4476 C.3     1  UNL1        0.1103
     22 C         144.1486  142.8930  164.2925 C.3     1  UNL1        0.2709
     23 F         144.0142  144.3788  164.1373 F       1  UNL1       -0.2041
     24 F         145.2395  142.8842  163.2629 F       1  UNL1       -0.2041
     25 C         143.0578  142.9017  165.3221 C.3     1  UNL1        0.1103
     26 C         139.0202  143.7497  156.7122 C.3     1  UNL1        0.0505
     27 C         139.9713  144.8603  156.3775 C.3     1  UNL1        0.0437
     28 C         140.3240  145.8841  157.4155 C.3     1  UNL1        0.1856
     29 F         139.3953  147.0311  157.6836 F       1  UNL1       -0.2351
     30 C         141.6054  145.7610  158.1854 C.3     1  UNL1        0.1643
     31 C         141.0002  144.1995  161.6870 C.ar    1  UNL1        0.1762
     32 C         140.5714  145.0871  160.5564 C.ar    1  UNL1        0.1223
     33 N         141.6272  145.0258  159.4927 N.ar    1  UNL1       -0.2272
     34 N         142.7086  144.1003  159.9658 N.ar    1  UNL1       -0.0636
     35 N         142.3212  143.5895  161.3219 N.ar    1  UNL1       -0.1241
     36 C         138.9476  144.8903  165.0125 C.3     1  UNL1        0.1110
     37 N         139.7063  145.1266  163.7403 N.am    1  UNL1       -0.2978
     38 C         140.2415  143.9632  162.9591 C.2     1  UNL1        0.2670
     39 O         140.0179  142.5637  163.4502 O.2     1  UNL1       -0.2684
     40 H         139.8531  146.0452  163.4181 H       1  UNL1        0.1498
@<TRIPOS>BOND
     1    36    37    1
     2    37    38   am
     3    38    39    2
     4    38    31    1
     5    31    32   ar
     6    32    33   ar
     7    33    30    1
     8    30    28    1
     9    28    29    1
    10    28    27    1
    11    27    26    1
    12    26     1    1
    13     1     2   ar
    14     2     3   ar
    15     3     4   ar
    16     4     7    1
    17     7     8   am
    18     8     9    2
    19     8    11    1
    20    11    12    1
    21    12    13   ar
    22    13    14   ar
    23    14    19    1
    24    19    20    1
    25    20    21    1
    26    21    22    1
    27    22    23    1
    28    22    24    1
    29    22    25    1
    30    14    15   ar
    31    15    16   ar
    32    16    17    1
    33    16    18   ar
    34     4     5   ar
    35     5     6   ar
    36    33    34   ar
    37    34    35   ar
    38    35    31   ar
    39     6     1   ar
    40    18    12   ar
    41    25    20    1
    42    37    40    1
    43     7    10    1
@<TRIPOS>MOLECULE
*****
 40 43 0 0 0
SMALL
GASTEIGER

@<TRIPOS>ATOM
      1 C         141.4774  145.2339  158.5469 C.ar    1  UNL1        0.0807
      2 C         140.8143  145.4438  159.8758 C.ar    1  UNL1        0.0194
      3 C         141.3175  144.7176  161.0880 C.ar    1  UNL1        0.0375
      4 C         142.4838  143.7816  160.9712 C.ar    1  UNL1        0.1559
      5 N         143.1469  143.5718  159.6423 N.ar    1  UNL1       -0.1331
      6 N         142.6437  144.2979  158.4301 N.ar    1  UNL1       -0.1512
      7 N         142.9870  143.0554  162.1835 N.am    1  UNL1       -0.2676
      8 C         143.7562  143.7968  163.2364 C.2     1  UNL1        0.2332
      9 O         144.0222  145.2644  163.0771 O.2     1  UNL1       -0.2743
     10 H         142.8123  142.0922  162.2881 H       1  UNL1        0.1563
     11 C         144.2593  143.0706  164.4487 C.3     1  UNL1        0.1311
     12 C         143.3163  142.7306  165.5645 C.ar    1  UNL1        0.0708
     13 C         141.8899  142.3803  165.2603 C.ar    1  UNL1        0.0521
     14 C         140.9468  142.0403  166.3761 C.ar    1  UNL1        0.1407
     15 C         141.4302  142.0507  167.7961 C.ar    1  UNL1        0.0516
     16 C         142.8567  142.4010  168.1002 C.ar    1  UNL1        0.0620
     17 C         143.3401  142.4114  169.5201 C.3     1  UNL1        0.0522
     18 N         143.7997  142.7410  166.9844 N.ar    1  UNL1       -0.2533
     19 O         139.5204  141.6899  166.0720 O.3     1  UNL1       -0.4787
     20 C         139.1348  140.2611  165.8276 C.3     1  UNL1        0.1768
     21 C         139.2564  139.3124  164.6721 C.3     1  UNL1        0.1103
     22 C         138.5894  138.2404  165.4819 C.3     1  UNL1        0.2709
     23 F         137.9225  137.1684  166.2917 F       1  UNL1       -0.2041
     24 F         138.7111  137.2918  164.3263 F       1  UNL1       -0.2041
     25 C         138.4678  139.1891  166.6375 C.3     1  UNL1        0.1103
     26 C         140.9742  145.9601  157.3346 C.3     1  UNL1        0.0505
     27 C         140.6820  145.2020  156.0737 C.3     1  UNL1        0.0437
     28 C         139.5053  144.2737  156.0123 C.3     1  UNL1        0.1856
     29 F         138.1582  144.7960  155.6092 F       1  UNL1       -0.2351
     30 C         139.6758  142.8232  156.3541 C.3     1  UNL1        0.1643
     31 C         138.9006  142.1515  160.0975 C.ar    1  UNL1        0.1762
     32 C         138.6183  142.8651  158.8087 C.ar    1  UNL1        0.1223
     33 N         139.5977  142.3753  157.7835 N.ar    1  UNL1       -0.2272
     34 N         140.4852  141.3590  158.4387 N.ar    1  UNL1       -0.0636
     35 N         140.0545  141.2206  159.8688 N.ar    1  UNL1       -0.1241
     36 C         137.4995  143.8281  163.4105 C.3     1  UNL1        0.1110
     37 N         138.2408  143.6433  162.1197 N.am    1  UNL1       -0.2978
     38 C         138.1593  142.3362  161.3884 C.2     1  UNL1        0.2670
     39 O         137.3364  141.2139  161.9479 O.2     1  UNL1       -0.2684
     40 H         138.7809  144.3800  161.7524 H       1  UNL1        0.1498
@<TRIPOS>BOND
     1    36    37    1
     2    37    38   am
     3    38    39    2
     4    38    31    1
     5    31    32   ar
     6    32    33   ar
     7    33    30    1
     8    30    28    1
     9    28    29    1
    10    28    27    1
    11    27    26    1
    12    26     1    1
    13     1     2   ar
    14     2     3   ar
    15     3     4   ar
    16     4     7    1
    17     7     8   am
    18     8     9    2
    19     8    11    1
    20    11    12    1
    21    12    13   ar
    22    13    14   ar
    23    14    19    1
    24    19    20    1
    25    20    21    1
    26    21    22    1
    27    22    23    1
    28    22    24    1
    29    22    25    1
    30    14    15   ar
    31    15    16   ar
    32    16    17    1
    33    16    18   ar
    34     4     5   ar
    35     5     6   ar
    36    33    34   ar
    37    34    35   ar
    38    35    31   ar
    39     6     1   ar
    40    18    12   ar
    41    25    20    1
    42    37    40    1
    43     7    10    1
@<TRIPOS>MOLECULE
*****
 40 43 0 0 0
SMALL
GASTEIGER

@<TRIPOS>ATOM
      1 C         141.0207  142.6998  168.0212 C.ar    1  UNL1        0.0807
      2 C         140.2949  143.0659  166.7606 C.ar    1  UNL1        0.0194
      3 C         141.0038  142.9982  165.4404 C.ar    1  UNL1        0.0375
      4 C         142.4385  142.5645  165.3809 C.ar    1  UNL1        0.1559
      5 N         143.1643  142.1985  166.6415 N.ar    1  UNL1       -0.1331
      6 N         142.4554  142.2661  167.9617 N.ar    1  UNL1       -0.1512
      7 N         143.1474  142.4969  164.0607 N.am    1  UNL1       -0.2676
      8 C         143.8055  143.7222  163.4991 C.2     1  UNL1        0.2332
      9 O         143.7548  145.0153  164.2578 O.2     1  UNL1       -0.2743
     10 H         143.1807  141.6483  163.5627 H       1  UNL1        0.1563
     11 C         144.5144  143.6546  162.1789 C.3     1  UNL1        0.1311
     12 C         143.7965  143.1373  160.9678 C.ar    1  UNL1        0.0708
     13 C         142.3208  143.3610  160.8181 C.ar    1  UNL1        0.0521
     14 C         141.6029  142.8437  159.6070 C.ar    1  UNL1        0.1407
     15 C         142.3606  142.1027  158.5454 C.ar    1  UNL1        0.0516
     16 C         143.8363  141.8790  158.6950 C.ar    1  UNL1        0.0620
     17 C         144.5940  141.1381  157.6335 C.3     1  UNL1        0.0522
     18 N         144.5542  142.3964  159.9063 N.ar    1  UNL1       -0.2533
     19 O         140.1272  143.0674  159.4573 O.3     1  UNL1       -0.4787
     20 C         139.1652  142.3546  160.3609 C.3     1  UNL1        0.1768
     21 C         138.3846  142.7290  161.5858 C.3     1  UNL1        0.1103
     22 C         137.8047  141.3467  161.6387 C.3     1  UNL1        0.2709
     23 F         137.2247  139.9644  161.6917 F       1  UNL1       -0.2041
     24 F         137.0241  141.7211  162.8637 F       1  UNL1       -0.2041
     25 C         138.5853  140.9723  160.4138 C.3     1  UNL1        0.1103
     26 C         140.3118  142.7675  169.3414 C.3     1  UNL1        0.0505
     27 C         139.7610  141.5178  169.9619 C.3     1  UNL1        0.0437
     28 C         139.9613  140.1937  169.2860 C.3     1  UNL1        0.1856
     29 F         141.2357  139.4304  169.4945 F       1  UNL1       -0.2351
     30 C         138.8873  139.6330  168.4017 C.3     1  UNL1        0.1643
     31 C         140.1706  139.4519  164.7431 C.ar    1  UNL1        0.1762
     32 C         140.4267  139.5307  166.2189 C.ar    1  UNL1        0.1223
     33 N         139.1003  139.5573  166.9189 N.ar    1  UNL1       -0.2272
     34 N         138.0244  139.4949  165.8757 N.ar    1  UNL1       -0.0636
     35 N         138.6857  139.4298  164.5309 N.ar    1  UNL1       -0.1241
     36 C         143.2464  138.2255  162.5556 C.3     1  UNL1        0.1110
     37 N         142.2014  138.2737  163.6306 N.am    1  UNL1       -0.2978
     38 C         141.2156  139.4037  163.6681 C.2     1  UNL1        0.2670
     39 O         141.2749  140.4854  162.6307 O.2     1  UNL1       -0.2684
     40 H         142.1625  137.5637  164.3115 H       1  UNL1        0.1498
@<TRIPOS>BOND
     1    36    37    1
     2    37    38   am
     3    38    39    2
     4    38    31    1
     5    31    32   ar
     6    32    33   ar
     7    33    30    1
     8    30    28    1
     9    28    29    1
    10    28    27    1
    11    27    26    1
    12    26     1    1
    13     1     2   ar
    14     2     3   ar
    15     3     4   ar
    16     4     7    1
    17     7     8   am
    18     8     9    2
    19     8    11    1
    20    11    12    1
    21    12    13   ar
    22    13    14   ar
    23    14    19    1
    24    19    20    1
    25    20    21    1
    26    21    22    1
    27    22    23    1
    28    22    24    1
    29    22    25    1
    30    14    15   ar
    31    15    16   ar
    32    16    17    1
    33    16    18   ar
    34     4     5   ar
    35     5     6   ar
    36    33    34   ar
    37    34    35   ar
    38    35    31   ar
    39     6     1   ar
    40    18    12   ar
    41    25    20    1
    42    37    40    1
    43     7    10    1
@<TRIPOS>MOLECULE
*****
 40 43 0 0 0
SMALL
GASTEIGER

@<TRIPOS>ATOM
      1 C         139.9178  142.7490  158.0526 C.ar    1  UNL1        0.0807
      2 C         141.0441  141.9319  158.6127 C.ar    1  UNL1        0.0194
      3 C         140.8831  141.2379  159.9327 C.ar    1  UNL1        0.0375
      4 C         139.5957  141.3611  160.6926 C.ar    1  UNL1        0.1559
      5 N         138.4694  142.1782  160.1326 N.ar    1  UNL1       -0.1331
      6 N         138.6304  142.8721  158.8126 N.ar    1  UNL1       -0.1512
      7 N         139.4347  140.6671  162.0127 N.am    1  UNL1       -0.2676
      8 C         138.5760  139.4416  162.1159 C.2     1  UNL1        0.2332
      9 O         137.8782  138.9100  160.8991 O.2     1  UNL1       -0.2743
     10 H         139.8926  141.0160  162.8113 H       1  UNL1        0.1563
     11 C         138.4150  138.7476  163.4360 C.3     1  UNL1        0.1311
     12 C         139.3857  139.0157  164.5476 C.ar    1  UNL1        0.0708
     13 C         138.8897  139.5154  165.8721 C.ar    1  UNL1        0.0521
     14 C         139.8605  139.7836  166.9838 C.ar    1  UNL1        0.1407
     15 C         141.3272  139.5520  166.7709 C.ar    1  UNL1        0.0516
     16 C         141.8231  139.0524  165.4464 C.ar    1  UNL1        0.0620
     17 C         143.2897  138.8208  165.2335 C.3     1  UNL1        0.0522
     18 N         140.8523  138.7842  164.3347 N.ar    1  UNL1       -0.2533
     19 O         139.3645  140.2833  168.3083 O.3     1  UNL1       -0.4787
     20 C         140.1891  141.2544  169.1000 C.3     1  UNL1        0.1768
     21 C         140.4350  142.7329  169.0399 C.3     1  UNL1        0.1103
     22 C         141.3553  142.6278  170.2197 C.3     1  UNL1        0.2709
     23 F         142.2756  142.5229  171.3995 F       1  UNL1       -0.2041
     24 F         141.6011  144.1064  170.1595 F       1  UNL1       -0.2041
     25 C         141.1094  141.1494  170.2799 C.3     1  UNL1        0.1103
     26 C         140.0788  143.4430  156.7325 C.3     1  UNL1        0.0505
     27 C         139.5302  144.8257  156.5404 C.3     1  UNL1        0.0437
     28 C         140.1391  145.9830  157.2753 C.3     1  UNL1        0.1856
     29 F         139.5413  147.3526  157.1447 F       1  UNL1       -0.2351
     30 C         141.3456  145.7707  158.1409 C.3     1  UNL1        0.1643
     31 C         140.2109  144.9558  161.7622 C.ar    1  UNL1        0.1762
     32 C         139.9321  145.5034  160.3938 C.ar    1  UNL1        0.1223
     33 N         141.1779  145.3536  159.5719 N.ar    1  UNL1       -0.2272
     34 N         142.2267  144.7134  160.4322 N.ar    1  UNL1       -0.0636
     35 N         141.6291  144.4675  161.7859 N.ar    1  UNL1       -0.1241
     36 C         138.7677  144.9932  165.4589 C.3     1  UNL1        0.1110
     37 N         139.7369  145.0437  164.3151 N.am    1  UNL1       -0.2978
     38 C         139.2418  144.9053  162.9059 C.2     1  UNL1        0.2670
     39 O         137.7776  144.7165  162.6406 O.2     1  UNL1       -0.2684
     40 H         140.6979  145.1676  164.4893 H       1  UNL1        0.1498
@<TRIPOS>BOND
     1    36    37    1
     2    37    38   am
     3    38    39    2
     4    38    31    1
     5    31    32   ar
     6    32    33   ar
     7    33    30    1
     8    30    28    1
     9    28    29    1
    10    28    27    1
    11    27    26    1
    12    26     1    1
    13     1     2   ar
    14     2     3   ar
    15     3     4   ar
    16     4     7    1
    17     7     8   am
    18     8     9    2
    19     8    11    1
    20    11    12    1
    21    12    13   ar
    22    13    14   ar
    23    14    19    1
    24    19    20    1
    25    20    21    1
    26    21    22    1
    27    22    23    1
    28    22    24    1
    29    22    25    1
    30    14    15   ar
    31    15    16   ar
    32    16    17    1
    33    16    18   ar
    34     4     5   ar
    35     5     6   ar
    36    33    34   ar
    37    34    35   ar
    38    35    31   ar
    39     6     1   ar
    40    18    12   ar
    41    25    20    1
    42    37    40    1
    43     7    10    1
@<TRIPOS>MOLECULE
*****
 40 43 0 0 0
SMALL
GASTEIGER

@<TRIPOS>ATOM
      1 C         138.9724  139.8401  159.1966 C.ar    1  UNL1        0.0807
      2 C         140.1206  139.9320  160.1574 C.ar    1  UNL1        0.0194
      3 C         139.8594  140.0276  161.6313 C.ar    1  UNL1        0.0375
      4 C         138.4499  140.0313  162.1445 C.ar    1  UNL1        0.1559
      5 N         137.3017  139.9394  161.1838 N.ar    1  UNL1       -0.1331
      6 N         137.5629  139.8438  159.7098 N.ar    1  UNL1       -0.1512
      7 N         138.1887  140.1269  163.6185 N.am    1  UNL1       -0.2676
      8 C         138.4973  138.9623  164.5120 C.2     1  UNL1        0.2332
      9 O         139.0672  137.7020  163.9316 O.2     1  UNL1       -0.2743
     10 H         137.8147  140.9541  163.9995 H       1  UNL1        0.1563
     11 C         138.2361  139.0580  165.9861 C.3     1  UNL1        0.1311
     12 C         139.1803  139.8210  166.8671 C.ar    1  UNL1        0.0708
     13 C         140.1288  140.8156  166.2661 C.ar    1  UNL1        0.0521
     14 C         141.0729  141.5787  167.1472 C.ar    1  UNL1        0.1407
     15 C         141.0685  141.3472  168.6293 C.ar    1  UNL1        0.0516
     16 C         140.1200  140.3527  169.2302 C.ar    1  UNL1        0.0620
     17 C         140.1156  140.1212  170.7122 C.3     1  UNL1        0.0522
     18 N         139.1758  139.5896  168.3491 N.ar    1  UNL1       -0.2533
     19 O         142.0215  142.5732  166.5462 O.3     1  UNL1       -0.4787
     20 C         143.1518  142.1027  165.6797 C.3     1  UNL1        0.1768
     21 C         143.6386  140.7658  165.2046 C.3     1  UNL1        0.1103
     22 C         144.7504  141.4373  164.4542 C.3     1  UNL1        0.2709
     23 F         145.8622  142.1087  163.7039 F       1  UNL1       -0.2041
     24 F         145.2372  140.1004  163.9792 F       1  UNL1       -0.2041
     25 C         144.2636  142.7742  164.9293 C.3     1  UNL1        0.1103
     26 C         139.2336  139.7445  157.7226 C.3     1  UNL1        0.0505
     27 C         139.1555  140.9732  156.8658 C.3     1  UNL1        0.0437
     28 C         138.9668  142.3193  157.5003 C.3     1  UNL1        0.1856
     29 F         137.5861  142.8777  157.6780 F       1  UNL1       -0.2351
     30 C         140.1589  143.1068  157.9572 C.3     1  UNL1        0.1643
     31 C         139.9377  144.8044  161.4406 C.ar    1  UNL1        0.1762
     32 C         140.0777  143.5791  160.5869 C.ar    1  UNL1        0.1223
     33 N         140.0491  144.0093  159.1502 N.ar    1  UNL1       -0.2272
     34 N         139.8913  145.5006  159.1160 N.ar    1  UNL1       -0.0636
     35 N         139.8225  145.9920  160.5315 N.ar    1  UNL1       -0.1241
     36 C         138.6004  144.6914  165.1754 C.3     1  UNL1        0.1110
     37 N         138.6215  144.6592  163.6760 N.am    1  UNL1       -0.2978
     38 C         139.9166  144.8366  162.9401 C.2     1  UNL1        0.2670
     39 O         141.1904  145.0462  163.7038 O.2     1  UNL1       -0.2684
     40 H         137.7854  144.5216  163.1747 H       1  UNL1        0.1498
@<TRIPOS>BOND
     1    36    37    1
     2    37    38   am
     3    38    39    2
     4    38    31    1
     5    31    32   ar
     6    32    33   ar
     7    33    30    1
     8    30    28    1
     9    28    29    1
    10    28    27    1
    11    27    26    1
    12    26     1    1
    13     1     2   ar
    14     2     3   ar
    15     3     4   ar
    16     4     7    1
    17     7     8   am
    18     8     9    2
    19     8    11    1
    20    11    12    1
    21    12    13   ar
    22    13    14   ar
    23    14    19    1
    24    19    20    1
    25    20    21    1
    26    21    22    1
    27    22    23    1
    28    22    24    1
    29    22    25    1
    30    14    15   ar
    31    15    16   ar
    32    16    17    1
    33    16    18   ar
    34     4     5   ar
    35     5     6   ar
    36    33    34   ar
    37    34    35   ar
    38    35    31   ar
    39     6     1   ar
    40    18    12   ar
    41    25    20    1
    42    37    40    1
    43     7    10    1
@<TRIPOS>MOLECULE
*****
 40 43 0 0 0
SMALL
GASTEIGER

@<TRIPOS>ATOM
      1 C         140.8386  145.4489  158.9107 C.ar    1  UNL1        0.0807
      2 C         140.0767  145.6368  160.1890 C.ar    1  UNL1        0.0194
      3 C         140.5819  145.0220  161.4605 C.ar    1  UNL1        0.0375
      4 C         141.8490  144.2193  161.4537 C.ar    1  UNL1        0.1559
      5 N         142.6109  144.0313  160.1754 N.ar    1  UNL1       -0.1331
      6 N         142.1057  144.6461  158.9039 N.ar    1  UNL1       -0.1512
      7 N         142.3542  143.6045  162.7253 N.am    1  UNL1       -0.2676
      8 C         143.6519  144.0674  163.3183 C.2     1  UNL1        0.2332
      9 O         144.4444  145.1451  162.6397 O.2     1  UNL1       -0.2743
     10 H         141.8341  142.8971  163.1706 H       1  UNL1        0.1563
     11 C         144.1571  143.4526  164.5898 C.3     1  UNL1        0.1311
     12 C         143.5426  142.1854  165.1061 C.ar    1  UNL1        0.0708
     13 C         143.2337  142.0425  166.5670 C.ar    1  UNL1        0.0521
     14 C         142.6192  140.7753  167.0832 C.ar    1  UNL1        0.1407
     15 C         142.3134  139.6509  166.1385 C.ar    1  UNL1        0.0516
     16 C         142.6223  139.7938  164.6776 C.ar    1  UNL1        0.0620
     17 C         142.3166  138.6695  163.7329 C.3     1  UNL1        0.0522
     18 N         143.2369  141.0611  164.1614 N.ar    1  UNL1       -0.2533
     19 O         142.3103  140.6324  168.5441 O.3     1  UNL1       -0.4787
     20 C         141.3985  141.6148  169.2175 C.3     1  UNL1        0.1768
     21 C         141.4144  143.0986  169.4370 C.3     1  UNL1        0.1103
     22 C         140.1090  143.0041  170.1698 C.3     1  UNL1        0.2709
     23 F         138.8036  142.9097  170.9026 F       1  UNL1       -0.2041
     24 F         140.1249  144.4879  170.3893 F       1  UNL1       -0.2041
     25 C         140.0931  141.5203  169.9503 C.3     1  UNL1        0.1103
     26 C         140.3333  146.0637  157.6391 C.3     1  UNL1        0.0505
     27 C         141.1531  145.9755  156.3861 C.3     1  UNL1        0.0437
     28 C         140.5653  146.4025  155.0737 C.3     1  UNL1        0.1856
     29 F         141.3495  146.2247  153.8074 F       1  UNL1       -0.2351
     30 C         139.1934  147.0073  155.0276 C.3     1  UNL1        0.1643
     31 C         138.9466  150.8773  155.1923 C.ar    1  UNL1        0.1762
     32 C         139.2784  149.6160  154.4514 C.ar    1  UNL1        0.1223
     33 N         139.0012  148.4568  155.3620 N.ar    1  UNL1       -0.2272
     34 N         138.4979  149.0016  156.6658 N.ar    1  UNL1       -0.0636
     35 N         138.4642  150.4975  156.5610 N.ar    1  UNL1       -0.1241
     36 C         137.9794  154.4216  153.6916 C.3     1  UNL1        0.1110
     37 N         137.8514  153.0257  154.2254 N.am    1  UNL1       -0.2978
     38 C         139.0746  152.2732  154.6585 C.2     1  UNL1        0.2670
     39 O         140.4257  152.9166  154.5576 O.2     1  UNL1       -0.2684
     40 H         136.9645  152.6034  154.2917 H       1  UNL1        0.1498
@<TRIPOS>BOND
     1    36    37    1
     2    37    38   am
     3    38    39    2
     4    38    31    1
     5    31    32   ar
     6    32    33   ar
     7    33    30    1
     8    30    28    1
     9    28    29    1
    10    28    27    1
    11    27    26    1
    12    26     1    1
    13     1     2   ar
    14     2     3   ar
    15     3     4   ar
    16     4     7    1
    17     7     8   am
    18     8     9    2
    19     8    11    1
    20    11    12    1
    21    12    13   ar
    22    13    14   ar
    23    14    19    1
    24    19    20    1
    25    20    21    1
    26    21    22    1
    27    22    23    1
    28    22    24    1
    29    22    25    1
    30    14    15   ar
    31    15    16   ar
    32    16    17    1
    33    16    18   ar
    34     4     5   ar
    35     5     6   ar
    36    33    34   ar
    37    34    35   ar
    38    35    31   ar
    39     6     1   ar
    40    18    12   ar
    41    25    20    1
    42    37    40    1
    43     7    10    1
@<TRIPOS>MOLECULE
*****
 40 43 0 0 0
SMALL
GASTEIGER

@<TRIPOS>ATOM
      1 C         141.7702  145.0457  158.1889 C.ar    1  UNL1        0.0807
      2 C         142.6255  143.8359  158.4227 C.ar    1  UNL1        0.0194
      3 C         142.7513  143.2617  159.8027 C.ar    1  UNL1        0.0375
      4 C         142.0218  143.8973  160.9489 C.ar    1  UNL1        0.1559
      5 N         141.1665  145.1071  160.7151 N.ar    1  UNL1       -0.1331
      6 N         141.0407  145.6814  159.3351 N.ar    1  UNL1       -0.1512
      7 N         142.1477  143.3231  162.3289 N.am    1  UNL1       -0.2676
      8 C         143.2104  143.8300  163.2582 C.2     1  UNL1        0.2332
      9 O         144.1474  144.9112  162.8074 O.2     1  UNL1       -0.2743
     10 H         141.5327  142.6135  162.6248 H       1  UNL1        0.1563
     11 C         143.3363  143.2557  164.6382 C.3     1  UNL1        0.1311
     12 C         143.2443  141.7729  164.8448 C.ar    1  UNL1        0.0708
     13 C         143.0101  141.2202  166.2194 C.ar    1  UNL1        0.0521
     14 C         142.9181  139.7374  166.4260 C.ar    1  UNL1        0.1407
     15 C         143.0602  138.8071  165.2579 C.ar    1  UNL1        0.0516
     16 C         143.2944  139.3598  163.8832 C.ar    1  UNL1        0.0620
     17 C         143.4366  138.4296  162.7151 C.3     1  UNL1        0.0522
     18 N         143.3865  140.8427  163.6767 N.ar    1  UNL1       -0.2533
     19 O         142.6839  139.1848  167.8007 O.3     1  UNL1       -0.4787
     20 C         141.7290  139.8707  168.7322 C.3     1  UNL1        0.1768
     21 C         140.2651  140.1959  168.7000 C.3     1  UNL1        0.1103
     22 C         140.3787  140.8409  170.0495 C.3     1  UNL1        0.2709
     23 F         140.4922  141.4858  171.3990 F       1  UNL1       -0.2041
     24 F         138.9147  141.1660  170.0173 F       1  UNL1       -0.2041
     25 C         141.8427  140.5157  170.0817 C.3     1  UNL1        0.1103
     26 C         141.6443  145.6200  156.8089 C.3     1  UNL1        0.0505
     27 C         141.0420  144.7995  155.7071 C.3     1  UNL1        0.0437
     28 C         139.7464  144.0777  155.9319 C.3     1  UNL1        0.1856
     29 F         138.4475  144.8226  155.8421 F       1  UNL1       -0.2351
     30 C         139.7496  142.6111  156.2464 C.3     1  UNL1        0.1643
     31 C         138.4085  142.0560  159.8462 C.ar    1  UNL1        0.1762
     32 C         138.9910  142.9449  158.7876 C.ar    1  UNL1        0.1223
     33 N         139.1897  142.1222  157.5492 N.ar    1  UNL1       -0.2272
     34 N         138.7301  140.7248  157.8424 N.ar    1  UNL1       -0.0636
     35 N         138.2473  140.6838  159.2620 N.ar    1  UNL1       -0.1241
     36 C         138.0252  144.2579  163.1256 C.3     1  UNL1        0.1110
     37 N         138.3834  143.8469  161.7282 N.am    1  UNL1       -0.2978
     38 C         138.0503  142.4670  161.2436 C.2     1  UNL1        0.2670
     39 O         137.3589  141.4981  162.1564 O.2     1  UNL1       -0.2684
     40 H         138.8372  144.4829  161.1291 H       1  UNL1        0.1498
@<TRIPOS>BOND
     1    36    37    1
     2    37    38   am
     3    38    39    2
     4    38    31    1
     5    31    32   ar
     6    32    33   ar
     7    33    30    1
     8    30    28    1
     9    28    29    1
    10    28    27    1
    11    27    26    1
    12    26     1    1
    13     1     2   ar
    14     2     3   ar
    15     3     4   ar
    16     4     7    1
    17     7     8   am
    18     8     9    2
    19     8    11    1
    20    11    12    1
    21    12    13   ar
    22    13    14   ar
    23    14    19    1
    24    19    20    1
    25    20    21    1
    26    21    22    1
    27    22    23    1
    28    22    24    1
    29    22    25    1
    30    14    15   ar
    31    15    16   ar
    32    16    17    1
    33    16    18   ar
    34     4     5   ar
    35     5     6   ar
    36    33    34   ar
    37    34    35   ar
    38    35    31   ar
    39     6     1   ar
    40    18    12   ar
    41    25    20    1
    42    37    40    1
    43     7    10    1
@<TRIPOS>MOLECULE
*****
 40 43 0 0 0
SMALL
GASTEIGER

@<TRIPOS>ATOM
      1 C         137.7426  142.9873  163.1477 C.ar    1  UNL1        0.0807
      2 C         137.5074  141.5080  163.2268 C.ar    1  UNL1        0.0194
      3 C         137.6788  140.6550  162.0050 C.ar    1  UNL1        0.0375
      4 C         138.0855  141.2812  160.7041 C.ar    1  UNL1        0.1559
      5 N         138.3207  142.7605  160.6249 N.ar    1  UNL1       -0.1331
      6 N         138.1493  143.6136  161.8467 N.ar    1  UNL1       -0.1512
      7 N         138.2569  140.4281  159.4822 N.am    1  UNL1       -0.2676
      8 C         139.5933  139.8217  159.1724 C.2     1  UNL1        0.2332
      9 O         140.7585  140.0683  160.0843 O.2     1  UNL1       -0.2743
     10 H         137.4922  140.2662  158.8837 H       1  UNL1        0.1563
     11 C         139.7648  138.9685  157.9505 C.3     1  UNL1        0.1311
     12 C         141.0442  139.0252  157.1697 C.ar    1  UNL1        0.0708
     13 C         141.9191  137.8105  157.0744 C.ar    1  UNL1        0.0521
     14 C         143.1986  137.8672  156.2936 C.ar    1  UNL1        0.1407
     15 C         143.6032  139.1386  155.6080 C.ar    1  UNL1        0.0516
     16 C         142.7283  140.3533  155.7033 C.ar    1  UNL1        0.0620
     17 C         143.1328  141.6246  155.0178 C.3     1  UNL1        0.0522
     18 N         141.4487  140.2965  156.4842 N.ar    1  UNL1       -0.2533
     19 O         144.0735  136.6525  156.1982 O.3     1  UNL1       -0.4787
     20 C         143.4707  135.2835  156.3086 C.3     1  UNL1        0.1768
     21 C         143.7040  134.0893  157.1859 C.3     1  UNL1        0.1103
     22 C         142.6181  133.3473  156.4647 C.3     1  UNL1        0.2709
     23 F         141.5322  132.6052  155.7437 F       1  UNL1       -0.2041
     24 F         142.8515  132.1532  157.3421 F       1  UNL1       -0.2041
     25 C         142.3847  134.5414  155.5875 C.3     1  UNL1        0.1103
     26 C         137.5712  143.8405  164.3695 C.3     1  UNL1        0.0505
     27 C         138.7614  144.5106  164.9894 C.3     1  UNL1        0.0437
     28 C         140.0567  143.7658  165.1225 C.3     1  UNL1        0.1856
     29 F         141.2574  144.2030  164.3368 F       1  UNL1       -0.2351
     30 C         140.1512  142.5838  166.0411 C.3     1  UNL1        0.1643
     31 C         140.7182  139.3086  164.0370 C.ar    1  UNL1        0.1762
     32 C         140.9284  140.7816  164.2265 C.ar    1  UNL1        0.1223
     33 N         140.2068  141.1961  165.4745 N.ar    1  UNL1       -0.2272
     34 N         139.5506  139.9793  166.0564 N.ar    1  UNL1       -0.0636
     35 N         139.8666  138.8127  165.1680 N.ar    1  UNL1       -0.1241
     36 C         143.2051  137.8798  161.2941 C.3     1  UNL1        0.1110
     37 N         142.6596  138.7110  162.4173 N.am    1  UNL1       -0.2978
     38 C         141.2636  138.4773  162.9139 C.2     1  UNL1        0.2670
     39 O         140.4132  137.4125  162.2873 O.2     1  UNL1       -0.2684
     40 H         143.2179  139.4099  162.8285 H       1  UNL1        0.1498
@<TRIPOS>BOND
     1    36    37    1
     2    37    38   am
     3    38    39    2
     4    38    31    1
     5    31    32   ar
     6    32    33   ar
     7    33    30    1
     8    30    28    1
     9    28    29    1
    10    28    27    1
    11    27    26    1
    12    26     1    1
    13     1     2   ar
    14     2     3   ar
    15     3     4   ar
    16     4     7    1
    17     7     8   am
    18     8     9    2
    19     8    11    1
    20    11    12    1
    21    12    13   ar
    22    13    14   ar
    23    14    19    1
    24    19    20    1
    25    20    21    1
    26    21    22    1
    27    22    23    1
    28    22    24    1
    29    22    25    1
    30    14    15   ar
    31    15    16   ar
    32    16    17    1
    33    16    18   ar
    34     4     5   ar
    35     5     6   ar
    36    33    34   ar
    37    34    35   ar
    38    35    31   ar
    39     6     1   ar
    40    18    12   ar
    41    25    20    1
    42    37    40    1
    43     7    10    1
