@<TRIPOS>MOLECULE
*****
 31 34 0 0 0
SMALL
GASTEIGER

@<TRIPOS>ATOM
      1 C         139.9790  139.2478  162.3771 C.ar    1  UNL1       -0.0003
      2 C         138.7791  139.4697  161.5047 C.ar    1  UNL1        0.0001
      3 C         138.8541  139.1724  160.0364 C.ar    1  UNL1        0.0042
      4 C         140.1290  138.6531  159.4405 C.ar    1  UNL1        0.0497
      5 C         141.3288  138.4312  160.3128 C.ar    1  UNL1       -0.0161
      6 C         141.2539  138.7286  161.7811 C.ar    1  UNL1       -0.0041
      7 C         142.6037  137.9120  159.7169 C.3     1  UNL1        0.0480
      8 C         142.6787  137.6147  158.2486 C.3     1  UNL1        0.0984
      9 N         141.4787  137.8365  157.3762 N.am    1  UNL1       -0.2743
     10 C         140.2039  138.3558  157.9721 C.2     1  UNL1        0.2488
     11 O         139.0040  138.5777  157.0998 O.2     1  UNL1       -0.2699
     12 C         139.7543  140.1399  166.7821 C.ar    1  UNL1        0.0534
     13 C         138.7088  139.2794  166.1369 C.ar    1  UNL1        0.0045
     14 C         138.7837  138.9820  164.6685 C.ar    1  UNL1        0.0001
     15 C         139.9041  139.5452  163.8454 C.ar    1  UNL1       -0.0000
     16 C         140.9496  140.4057  164.4907 C.ar    1  UNL1        0.0001
     17 C         140.8747  140.7031  165.9590 C.ar    1  UNL1        0.0045
     18 N         140.5451  141.5090  168.8436 N.am    1  UNL1       -0.3025
     19 C         139.6794  140.4373  168.2504 C.2     1  UNL1        0.2458
     20 O         138.7388  139.6629  169.1254 O.2     1  UNL1       -0.2701
     21 H         141.1624  142.0172  168.2693 H       1  UNL1        0.1497
     22 C         141.2291  140.9579  171.2887 C.3     1  UNL1        0.0213
     23 C         140.4702  141.8064  170.3120 C.3     1  UNL1        0.0720
     24 C         139.6365  142.9524  170.8035 C.3     1  UNL1        0.0213
     25 C         141.5537  137.5392  155.9079 C.3     1  UNL1        0.1110
     26 C         142.5770  136.5725  155.3897 C.3     1  UNL1        0.0939
     27 N         142.4201  135.1035  155.6493 N.3     1  UNL1       -0.2712
     28 C         143.2373  134.2848  156.6043 C.3     1  UNL1        0.0722
     29 C         142.7407  132.8705  156.5448 C.3     1  UNL1        0.0188
     30 C         141.6166  132.8153  155.5530 C.3     1  UNL1        0.0188
     31 C         141.4185  134.1953  154.9996 C.3     1  UNL1        0.0722
@<TRIPOS>BOND
     1    22    23    1
     2    23    24    1
     3    23    18    1
     4    18    19   am
     5    19    20    2
     6    19    12    1
     7    12    13   ar
     8    13    14   ar
     9    14    15   ar
    10    15     1    1
    11     1     2   ar
    12     2     3   ar
    13     3     4   ar
    14     4     5   ar
    15     5     6   ar
    16     5     7    1
    17     7     8    1
    18     8     9    1
    19     9    25    1
    20    25    26    1
    21    26    27    1
    22    27    28    1
    23    28    29    1
    24    29    30    1
    25    30    31    1
    26     9    10   am
    27    10    11    2
    28    15    16   ar
    29    16    17   ar
    30    17    12   ar
    31     6     1   ar
    32    31    27    1
    33    10     4    1
    34    18    21    1
@<TRIPOS>MOLECULE
*****
 31 34 0 0 0
SMALL
GASTEIGER

@<TRIPOS>ATOM
      1 C         139.2931  140.2402  163.3782 C.ar    1  UNL1       -0.0003
      2 C         138.2372  140.1988  164.4427 C.ar    1  UNL1        0.0001
      3 C         138.6277  140.0191  165.8798 C.ar    1  UNL1        0.0042
      4 C         140.0741  139.8808  166.2523 C.ar    1  UNL1        0.0497
      5 C         141.1300  139.9222  165.1878 C.ar    1  UNL1       -0.0161
      6 C         140.7395  140.1019  163.7507 C.ar    1  UNL1       -0.0041
      7 C         142.5765  139.7839  165.5603 C.3     1  UNL1        0.0480
      8 C         142.9670  139.6042  166.9973 C.3     1  UNL1        0.0984
      9 N         141.9110  139.5628  168.0620 N.am    1  UNL1       -0.2743
     10 C         140.4646  139.7011  167.6894 C.2     1  UNL1        0.2488
     11 O         139.4087  139.6597  168.7540 O.2     1  UNL1       -0.2699
     12 C         138.1217  140.7792  159.0668 C.ar    1  UNL1        0.0534
     13 C         139.3705  141.4240  159.5909 C.ar    1  UNL1        0.0045
     14 C         139.7610  141.2443  161.0281 C.ar    1  UNL1        0.0001
     15 C         138.9026  140.4199  161.9410 C.ar    1  UNL1       -0.0000
     16 C         137.6538  139.7751  161.4169 C.ar    1  UNL1        0.0001
     17 C         137.2633  139.9547  159.9799 C.ar    1  UNL1        0.0045
     18 N         137.0812  142.2348  157.1831 N.am    1  UNL1       -0.3025
     19 C         137.7312  140.9589  157.6298 C.2     1  UNL1        0.2458
     20 O         137.9906  139.8626  156.6394 O.2     1  UNL1       -0.2701
     21 H         136.9109  142.9543  157.8332 H       1  UNL1        0.1497
     22 C         135.4954  141.6929  155.1977 C.3     1  UNL1        0.0213
     23 C         136.6907  142.4145  155.7460 C.3     1  UNL1        0.0720
     24 C         137.4954  143.3158  154.8572 C.3     1  UNL1        0.0213
     25 C         142.3015  139.3832  169.4990 C.3     1  UNL1        0.1110
     26 C         142.5950  140.5816  170.3520 C.3     1  UNL1        0.0939
     27 N         141.6524  141.7485  170.3557 N.3     1  UNL1       -0.2712
     28 C         141.8571  143.0495  169.6376 C.3     1  UNL1        0.0722
     29 C         140.6708  143.9243  169.9162 C.3     1  UNL1        0.0188
     30 C         139.7331  143.1639  170.8065 C.3     1  UNL1        0.0188
     31 C         140.3397  141.8192  171.0780 C.3     1  UNL1        0.0722
@<TRIPOS>BOND
     1    22    23    1
     2    23    24    1
     3    23    18    1
     4    18    19   am
     5    19    20    2
     6    19    12    1
     7    12    13   ar
     8    13    14   ar
     9    14    15   ar
    10    15     1    1
    11     1     2   ar
    12     2     3   ar
    13     3     4   ar
    14     4     5   ar
    15     5     6   ar
    16     5     7    1
    17     7     8    1
    18     8     9    1
    19     9    25    1
    20    25    26    1
    21    26    27    1
    22    27    28    1
    23    28    29    1
    24    29    30    1
    25    30    31    1
    26     9    10   am
    27    10    11    2
    28    15    16   ar
    29    16    17   ar
    30    17    12   ar
    31     6     1   ar
    32    31    27    1
    33    10     4    1
    34    18    21    1
@<TRIPOS>MOLECULE
*****
 31 34 0 0 0
SMALL
GASTEIGER

@<TRIPOS>ATOM
      1 C         142.3186  140.0445  161.9428 C.ar    1  UNL1       -0.0003
      2 C         143.6317  139.9892  161.2198 C.ar    1  UNL1        0.0001
      3 C         143.6922  139.4704  159.8137 C.ar    1  UNL1        0.0042
      4 C         142.4398  139.0070  159.1307 C.ar    1  UNL1        0.0497
      5 C         141.1267  139.0623  159.8537 C.ar    1  UNL1       -0.0161
      6 C         141.0662  139.5811  161.2598 C.ar    1  UNL1       -0.0041
      7 C         139.8743  138.5989  159.1706 C.3     1  UNL1        0.0480
      8 C         139.9348  138.0802  157.7646 C.3     1  UNL1        0.0984
      9 N         141.2479  138.0248  157.0414 N.am    1  UNL1       -0.2743
     10 C         142.5004  138.4882  157.7245 C.2     1  UNL1        0.2488
     11 O         143.8134  138.4329  157.0014 O.2     1  UNL1       -0.2699
     12 C         142.1369  141.6009  166.1613 C.ar    1  UNL1        0.0534
     13 C         140.8810  141.1593  165.4700 C.ar    1  UNL1        0.0045
     14 C         140.9416  140.6405  164.0639 C.ar    1  UNL1        0.0001
     15 C         142.2580  140.5633  163.3490 C.ar    1  UNL1       -0.0000
     16 C         143.5139  141.0049  164.0403 C.ar    1  UNL1        0.0001
     17 C         143.4533  141.5237  165.4464 C.ar    1  UNL1        0.0045
     18 N         140.7732  142.1227  168.3102 N.am    1  UNL1       -0.3025
     19 C         142.0763  142.1197  167.5674 C.2     1  UNL1        0.2458
     20 O         143.3189  142.6354  168.2307 O.2     1  UNL1       -0.2701
     21 H         139.9576  141.7842  167.8748 H       1  UNL1        0.1497
     22 C         140.9312  141.7083  170.8701 C.3     1  UNL1        0.0213
     23 C         140.7125  142.6415  169.7164 C.3     1  UNL1        0.0720
     24 C         140.4333  144.0935  169.9687 C.3     1  UNL1        0.0213
     25 C         141.3085  137.5060  155.6353 C.3     1  UNL1        0.1110
     26 C         140.8220  136.1214  155.3251 C.3     1  UNL1        0.0939
     27 N         141.6335  134.9305  155.7417 N.3     1  UNL1       -0.2712
     28 C         141.3607  133.5036  155.3682 C.3     1  UNL1        0.0722
     29 C         142.4188  132.6486  156.0005 C.3     1  UNL1        0.0188
     30 C         143.3454  133.5473  156.7647 C.3     1  UNL1        0.0188
     31 C         142.8600  134.9575  156.6047 C.3     1  UNL1        0.0722
@<TRIPOS>BOND
     1    22    23    1
     2    23    24    1
     3    23    18    1
     4    18    19   am
     5    19    20    2
     6    19    12    1
     7    12    13   ar
     8    13    14   ar
     9    14    15   ar
    10    15     1    1
    11     1     2   ar
    12     2     3   ar
    13     3     4   ar
    14     4     5   ar
    15     5     6   ar
    16     5     7    1
    17     7     8    1
    18     8     9    1
    19     9    25    1
    20    25    26    1
    21    26    27    1
    22    27    28    1
    23    28    29    1
    24    29    30    1
    25    30    31    1
    26     9    10   am
    27    10    11    2
    28    15    16   ar
    29    16    17   ar
    30    17    12   ar
    31     6     1   ar
    32    31    27    1
    33    10     4    1
    34    18    21    1
@<TRIPOS>MOLECULE
*****
 31 34 0 0 0
SMALL
GASTEIGER

@<TRIPOS>ATOM
      1 C         139.0774  139.5816  166.1305 C.ar    1  UNL1       -0.0003
      2 C         139.2086  141.0008  165.6630 C.ar    1  UNL1        0.0001
      3 C         139.8946  141.3020  164.3635 C.ar    1  UNL1        0.0042
      4 C         140.4494  140.1839  163.5316 C.ar    1  UNL1        0.0497
      5 C         140.3182  138.7647  163.9991 C.ar    1  UNL1       -0.0161
      6 C         139.6322  138.4636  165.2986 C.ar    1  UNL1       -0.0041
      7 C         140.8730  137.6466  163.1672 C.3     1  UNL1        0.0480
      8 C         141.5590  137.9477  161.8677 C.3     1  UNL1        0.0984
      9 N         141.6902  139.3670  161.4001 N.am    1  UNL1       -0.2743
     10 C         141.1354  140.4851  162.2320 C.2     1  UNL1        0.2488
     11 O         141.2666  141.9042  161.7645 O.2     1  UNL1       -0.2699
     12 C         137.0193  138.6781  170.0291 C.ar    1  UNL1        0.0534
     13 C         138.1334  139.6815  169.9840 C.ar    1  UNL1        0.0045
     14 C         138.8194  139.9827  168.6845 C.ar    1  UNL1        0.0001
     15 C         138.3914  139.2805  167.4301 C.ar    1  UNL1       -0.0000
     16 C         137.2773  138.2770  167.4751 C.ar    1  UNL1        0.0001
     17 C         136.5913  137.9758  168.7746 C.ar    1  UNL1        0.0045
     18 N         136.2806  136.9677  171.8397 N.am    1  UNL1       -0.3025
     19 C         136.3333  138.3769  171.3285 C.2     1  UNL1        0.2458
     20 O         135.7001  139.4849  172.1168 O.2     1  UNL1       -0.2701
     21 H         136.6963  136.2405  171.3224 H       1  UNL1        0.1497
     22 C         134.2224  137.2101  173.4066 C.3     1  UNL1        0.0213
     23 C         135.5946  136.6664  173.1393 C.3     1  UNL1        0.0720
     24 C         136.2808  135.8215  174.1714 C.3     1  UNL1        0.0213
     25 C         142.3762  139.6681  160.1006 C.3     1  UNL1        0.1110
     26 C         143.7597  140.2478  160.0995 C.3     1  UNL1        0.0939
     27 N         144.3944  140.6761  161.3894 N.3     1  UNL1       -0.2712
     28 C         144.6352  139.8039  162.5858 C.3     1  UNL1        0.0722
     29 C         145.2893  140.6406  163.6452 C.3     1  UNL1        0.0188
     30 C         145.4527  142.0299  163.1034 C.3     1  UNL1        0.0188
     31 C         144.8995  142.0518  161.7093 C.3     1  UNL1        0.0722
@<TRIPOS>BOND
     1    22    23    1
     2    23    24    1
     3    23    18    1
     4    18    19   am
     5    19    20    2
     6    19    12    1
     7    12    13   ar
     8    13    14   ar
     9    14    15   ar
    10    15     1    1
    11     1     2   ar
    12     2     3   ar
    13     3     4   ar
    14     4     5   ar
    15     5     6   ar
    16     5     7    1
    17     7     8    1
    18     8     9    1
    19     9    25    1
    20    25    26    1
    21    26    27    1
    22    27    28    1
    23    28    29    1
    24    29    30    1
    25    30    31    1
    26     9    10   am
    27    10    11    2
    28    15    16   ar
    29    16    17   ar
    30    17    12   ar
    31     6     1   ar
    32    31    27    1
    33    10     4    1
    34    18    21    1
@<TRIPOS>MOLECULE
*****
 31 34 0 0 0
SMALL
GASTEIGER

@<TRIPOS>ATOM
      1 C         139.9495  143.4080  162.2942 C.ar    1  UNL1       -0.0003
      2 C         140.2803  144.3961  163.3731 C.ar    1  UNL1        0.0001
      3 C         140.2764  143.9666  164.8102 C.ar    1  UNL1        0.0042
      4 C         139.9417  142.5490  165.1685 C.ar    1  UNL1        0.0497
      5 C         139.6109  141.5609  164.0896 C.ar    1  UNL1       -0.0161
      6 C         139.6148  141.9903  162.6524 C.ar    1  UNL1       -0.0041
      7 C         139.2761  140.1433  164.4479 C.3     1  UNL1        0.0480
      8 C         139.2722  139.7138  165.8850 C.3     1  UNL1        0.0984
      9 N         139.6030  140.7020  166.9640 N.am    1  UNL1       -0.2743
     10 C         139.9378  142.1196  166.6058 C.2     1  UNL1        0.2488
     11 O         140.2686  143.1078  167.6847 O.2     1  UNL1       -0.2699
     12 C         139.9612  144.6962  157.9824 C.ar    1  UNL1        0.0534
     13 C         140.5647  145.5823  159.0316 C.ar    1  UNL1        0.0045
     14 C         140.5607  145.1528  160.4688 C.ar    1  UNL1        0.0001
     15 C         139.9534  143.8374  160.8569 C.ar    1  UNL1       -0.0000
     16 C         139.3500  142.9513  159.8078 C.ar    1  UNL1        0.0001
     17 C         139.3538  143.3806  158.3706 C.ar    1  UNL1        0.0045
     18 N         140.6093  146.4216  156.1515 N.am    1  UNL1       -0.3025
     19 C         139.9651  145.1255  156.5452 C.2     1  UNL1        0.2458
     20 O         139.3248  144.2588  155.5018 O.2     1  UNL1       -0.2701
     21 H         141.0295  146.9905  156.8363 H       1  UNL1        0.1497
     22 C         141.4560  146.1165  153.7143 C.3     1  UNL1        0.0213
     23 C         140.6132  146.8511  154.7142 C.3     1  UNL1        0.0720
     24 C         139.7742  148.0151  154.2770 C.3     1  UNL1        0.0213
     25 C         139.5991  140.2726  168.4012 C.3     1  UNL1        0.1110
     26 C         140.8890  139.9261  169.0840 C.3     1  UNL1        0.0939
     27 N         141.8360  141.0144  169.4949 N.3     1  UNL1       -0.2712
     28 C         141.6409  141.9685  170.6357 C.3     1  UNL1        0.0722
     29 C         142.8287  142.8835  170.6830 C.3     1  UNL1        0.0188
     30 C         143.7578  142.4947  169.5714 C.3     1  UNL1        0.0188
     31 C         143.1443  141.3395  168.8372 C.3     1  UNL1        0.0722
@<TRIPOS>BOND
     1    22    23    1
     2    23    24    1
     3    23    18    1
     4    18    19   am
     5    19    20    2
     6    19    12    1
     7    12    13   ar
     8    13    14   ar
     9    14    15   ar
    10    15     1    1
    11     1     2   ar
    12     2     3   ar
    13     3     4   ar
    14     4     5   ar
    15     5     6   ar
    16     5     7    1
    17     7     8    1
    18     8     9    1
    19     9    25    1
    20    25    26    1
    21    26    27    1
    22    27    28    1
    23    28    29    1
    24    29    30    1
    25    30    31    1
    26     9    10   am
    27    10    11    2
    28    15    16   ar
    29    16    17   ar
    30    17    12   ar
    31     6     1   ar
    32    31    27    1
    33    10     4    1
    34    18    21    1
@<TRIPOS>MOLECULE
*****
 31 34 0 0 0
SMALL
GASTEIGER

@<TRIPOS>ATOM
      1 C         139.0292  146.7787  155.8160 C.ar    1  UNL1       -0.0003
      2 C         138.1816  145.7983  155.0607 C.ar    1  UNL1        0.0001
      3 C         138.1716  144.3524  155.4596 C.ar    1  UNL1        0.0042
      4 C         139.0090  143.8869  156.6137 C.ar    1  UNL1        0.0497
      5 C         139.8566  144.8673  157.3690 C.ar    1  UNL1       -0.0161
      6 C         139.8666  146.3133  156.9701 C.ar    1  UNL1       -0.0041
      7 C         140.6940  144.4018  158.5231 C.3     1  UNL1        0.0480
      8 C         140.6840  142.9559  158.9220 C.3     1  UNL1        0.0984
      9 N         139.8364  141.9754  158.1667 N.am    1  UNL1       -0.2743
     10 C         138.9990  142.4409  157.0126 C.2     1  UNL1        0.2488
     11 O         138.1514  141.4604  156.2574 O.2     1  UNL1       -0.2699
     12 C         139.0594  151.1167  154.6194 C.ar    1  UNL1        0.0534
     13 C         139.6910  150.0885  153.7284 C.ar    1  UNL1        0.0045
     14 C         139.6809  148.6425  154.1273 C.ar    1  UNL1        0.0001
     15 C         139.0392  148.2248  155.4171 C.ar    1  UNL1       -0.0000
     16 C         138.4076  149.2529  156.3081 C.ar    1  UNL1        0.0001
     17 C         138.4177  150.6989  155.9093 C.ar    1  UNL1        0.0045
     18 N         137.8066  153.2186  153.7464 N.am    1  UNL1       -0.3025
     19 C         139.0695  152.5627  154.2206 C.2     1  UNL1        0.2458
     20 O         140.3424  153.3526  154.2959 O.2     1  UNL1       -0.2701
     21 H         136.9712  152.7001  153.6969 H       1  UNL1        0.1497
     22 C         137.3442  155.7119  154.3119 C.3     1  UNL1        0.0213
     23 C         137.8166  154.6646  153.3476 C.3     1  UNL1        0.0720
     24 C         138.2991  155.0633  151.9844 C.3     1  UNL1        0.0213
     25 C         139.8264  140.5295  158.5656 C.3     1  UNL1        0.1110
     26 C         138.6708  139.9743  159.3443 C.3     1  UNL1        0.0939
     27 N         138.9209  139.1496  160.5722 N.3     1  UNL1       -0.2712
     28 C         140.2389  138.5683  160.9903 C.3     1  UNL1        0.0722
     29 C         140.0295  137.8209  162.2740 C.3     1  UNL1        0.0188
     30 C         138.5820  137.9404  162.6491 C.3     1  UNL1        0.0188
     31 C         137.8969  138.7616  161.5973 C.3     1  UNL1        0.0722
@<TRIPOS>BOND
     1    22    23    1
     2    23    24    1
     3    23    18    1
     4    18    19   am
     5    19    20    2
     6    19    12    1
     7    12    13   ar
     8    13    14   ar
     9    14    15   ar
    10    15     1    1
    11     1     2   ar
    12     2     3   ar
    13     3     4   ar
    14     4     5   ar
    15     5     6   ar
    16     5     7    1
    17     7     8    1
    18     8     9    1
    19     9    25    1
    20    25    26    1
    21    26    27    1
    22    27    28    1
    23    28    29    1
    24    29    30    1
    25    30    31    1
    26     9    10   am
    27    10    11    2
    28    15    16   ar
    29    16    17   ar
    30    17    12   ar
    31     6     1   ar
    32    31    27    1
    33    10     4    1
    34    18    21    1
@<TRIPOS>MOLECULE
*****
 31 34 0 0 0
SMALL
GASTEIGER

@<TRIPOS>ATOM
      1 C         141.5156  139.1639  161.9009 C.ar    1  UNL1       -0.0003
      2 C         140.1816  138.6080  161.4993 C.ar    1  UNL1        0.0001
      3 C         139.8907  138.3259  160.0551 C.ar    1  UNL1        0.0042
      4 C         140.9338  138.5997  159.0125 C.ar    1  UNL1        0.0497
      5 C         142.2678  139.1556  159.4141 C.ar    1  UNL1       -0.0161
      6 C         142.5587  139.4377  160.8583 C.ar    1  UNL1       -0.0041
      7 C         143.3109  139.4295  158.3715 C.3     1  UNL1        0.0480
      8 C         143.0200  139.1474  156.9273 C.3     1  UNL1        0.0984
      9 N         141.6859  138.5914  156.5256 N.am    1  UNL1       -0.2743
     10 C         140.6428  138.3176  157.5682 C.2     1  UNL1        0.2488
     11 O         139.3088  137.7616  157.1666 O.2     1  UNL1       -0.2699
     12 C         142.3884  140.0103  166.2336 C.ar    1  UNL1        0.0534
     13 C         143.3652  139.2227  165.4117 C.ar    1  UNL1        0.0045
     14 C         143.0743  138.9406  163.9674 C.ar    1  UNL1        0.0001
     15 C         141.8065  139.4460  163.3451 C.ar    1  UNL1       -0.0000
     16 C         140.8297  140.2336  164.1670 C.ar    1  UNL1        0.0001
     17 C         141.1206  140.5158  165.6112 C.ar    1  UNL1        0.0045
     18 N         142.6337  141.7013  168.1907 N.am    1  UNL1       -0.3025
     19 C         142.6793  140.2924  167.6778 C.2     1  UNL1        0.2458
     20 O         143.0158  139.1658  168.6091 O.2     1  UNL1       -0.2701
     21 H         142.4128  142.4407  167.5794 H       1  UNL1        0.1497
     22 C         144.2665  142.5180  170.0391 C.3     1  UNL1        0.0213
     23 C         142.9246  141.9835  169.6349 C.3     1  UNL1        0.0720
     24 C         141.8735  141.7311  170.6749 C.3     1  UNL1        0.0213
     25 C         141.3950  138.3093  155.0814 C.3     1  UNL1        0.1110
     26 C         142.1701  137.2518  154.3529 C.3     1  UNL1        0.0939
     27 N         142.5105  135.9632  155.0413 N.3     1  UNL1       -0.2712
     28 C         141.5624  134.8341  155.3177 C.3     1  UNL1        0.0722
     29 C         142.3246  133.7506  156.0214 C.3     1  UNL1        0.0188
     30 C         143.7437  134.2101  156.1799 C.3     1  UNL1        0.0188
     31 C         143.8585  135.5776  155.5742 C.3     1  UNL1        0.0722
@<TRIPOS>BOND
     1    22    23    1
     2    23    24    1
     3    23    18    1
     4    18    19   am
     5    19    20    2
     6    19    12    1
     7    12    13   ar
     8    13    14   ar
     9    14    15   ar
    10    15     1    1
    11     1     2   ar
    12     2     3   ar
    13     3     4   ar
    14     4     5   ar
    15     5     6   ar
    16     5     7    1
    17     7     8    1
    18     8     9    1
    19     9    25    1
    20    25    26    1
    21    26    27    1
    22    27    28    1
    23    28    29    1
    24    29    30    1
    25    30    31    1
    26     9    10   am
    27    10    11    2
    28    15    16   ar
    29    16    17   ar
    30    17    12   ar
    31     6     1   ar
    32    31    27    1
    33    10     4    1
    34    18    21    1
@<TRIPOS>MOLECULE
*****
 31 34 0 0 0
SMALL
GASTEIGER

@<TRIPOS>ATOM
      1 C         143.2818  139.9737  162.2031 C.ar    1  UNL1       -0.0003
      2 C         143.0825  138.7209  161.4027 C.ar    1  UNL1        0.0001
      3 C         143.3191  138.7317  159.9215 C.ar    1  UNL1        0.0042
      4 C         143.7548  139.9953  159.2408 C.ar    1  UNL1        0.0497
      5 C         143.9541  141.2481  160.0413 C.ar    1  UNL1       -0.0161
      6 C         143.7175  141.2373  161.5224 C.ar    1  UNL1       -0.0041
      7 C         144.3898  142.5118  159.3606 C.3     1  UNL1        0.0480
      8 C         144.6263  142.5226  157.8794 C.3     1  UNL1        0.0984
      9 N         144.4271  141.2698  157.0789 N.am    1  UNL1       -0.2743
     10 C         143.9914  140.0061  157.7596 C.2     1  UNL1        0.2488
     11 O         143.7921  138.7533  156.9591 O.2     1  UNL1       -0.2699
     12 C         142.5722  139.9413  166.6468 C.ar    1  UNL1        0.0534
     13 C         142.9688  138.6783  165.9414 C.ar    1  UNL1        0.0045
     14 C         143.2054  138.6891  164.4602 C.ar    1  UNL1        0.0001
     15 C         143.0452  139.9629  163.6844 C.ar    1  UNL1       -0.0000
     16 C         142.6486  141.2259  164.3897 C.ar    1  UNL1        0.0001
     17 C         142.4121  141.2151  165.8709 C.ar    1  UNL1        0.0045
     18 N         141.4068  140.9329  168.7464 N.am    1  UNL1       -0.3025
     19 C         142.3357  139.9306  168.1280 C.2     1  UNL1        0.2458
     20 O         143.0280  138.9175  168.9907 O.2     1  UNL1       -0.2701
     21 H         140.9524  141.5979  168.1801 H       1  UNL1        0.1497
     22 C         141.9587  141.8346  171.1197 C.3     1  UNL1        0.0213
     23 C         141.1702  140.9222  170.2276 C.3     1  UNL1        0.0720
     24 C         140.1452  139.9991  170.8167 C.3     1  UNL1        0.0213
     25 C         144.6636  141.2806  155.5977 C.3     1  UNL1        0.1110
     26 C         146.0631  141.3496  155.0621 C.3     1  UNL1        0.0939
     27 N         146.5487  142.6006  154.3917 N.3     1  UNL1       -0.2712
     28 C         145.7050  143.7805  154.0097 C.3     1  UNL1        0.0722
     29 C         146.5980  144.8004  153.3674 C.3     1  UNL1        0.0188
     30 C         147.9936  144.2506  153.3525 C.3     1  UNL1        0.0188
     31 C         147.9631  142.8911  153.9855 C.3     1  UNL1        0.0722
@<TRIPOS>BOND
     1    22    23    1
     2    23    24    1
     3    23    18    1
     4    18    19   am
     5    19    20    2
     6    19    12    1
     7    12    13   ar
     8    13    14   ar
     9    14    15   ar
    10    15     1    1
    11     1     2   ar
    12     2     3   ar
    13     3     4   ar
    14     4     5   ar
    15     5     6   ar
    16     5     7    1
    17     7     8    1
    18     8     9    1
    19     9    25    1
    20    25    26    1
    21    26    27    1
    22    27    28    1
    23    28    29    1
    24    29    30    1
    25    30    31    1
    26     9    10   am
    27    10    11    2
    28    15    16   ar
    29    16    17   ar
    30    17    12   ar
    31     6     1   ar
    32    31    27    1
    33    10     4    1
    34    18    21    1
@<TRIPOS>MOLECULE
*****
 31 34 0 0 0
SMALL
GASTEIGER

@<TRIPOS>ATOM
      1 C         139.1694  139.6566  166.0956 C.ar    1  UNL1       -0.0003
      2 C         140.5328  139.0925  165.8257 C.ar    1  UNL1        0.0001
      3 C         141.2286  139.3986  164.5326 C.ar    1  UNL1        0.0042
      4 C         140.5609  140.2688  163.5094 C.ar    1  UNL1        0.0497
      5 C         139.1975  140.8329  163.7793 C.ar    1  UNL1       -0.0161
      6 C         138.5018  140.5268  165.0724 C.ar    1  UNL1       -0.0041
      7 C         138.5299  141.7031  162.7561 C.3     1  UNL1        0.0480
      8 C         139.2256  142.0092  161.4630 C.3     1  UNL1        0.0984
      9 N         140.5891  141.4451  161.1930 N.am    1  UNL1       -0.2743
     10 C         141.2567  140.5749  162.2162 C.2     1  UNL1        0.2488
     11 O         142.6201  140.0108  161.9463 O.2     1  UNL1       -0.2699
     12 C         137.0820  138.7384  169.9751 C.ar    1  UNL1        0.0534
     13 C         136.6535  138.0519  168.7121 C.ar    1  UNL1        0.0045
     14 C         137.3493  138.3580  167.4189 C.ar    1  UNL1        0.0001
     15 C         138.4736  139.3505  167.3888 C.ar    1  UNL1       -0.0000
     16 C         138.9020  140.0370  168.6518 C.ar    1  UNL1        0.0001
     17 C         138.2063  139.7310  169.9449 C.ar    1  UNL1        0.0045
     18 N         136.3514  137.0251  171.7863 N.am    1  UNL1       -0.3025
     19 C         136.3862  138.4323  171.2682 C.2     1  UNL1        0.2458
     20 O         135.7253  139.5335  172.0432 O.2     1  UNL1       -0.2701
     21 H         136.7852  136.3024  171.2777 H       1  UNL1        0.1497
     22 C         134.3228  137.3385  173.3790 C.3     1  UNL1        0.0213
     23 C         135.6556  136.7190  173.0795 C.3     1  UNL1        0.0720
     24 C         136.2927  135.7934  174.0731 C.3     1  UNL1        0.0213
     25 C         141.2848  141.7512  159.8999 C.3     1  UNL1        0.1110
     26 C         142.2141  142.9251  159.8078 C.3     1  UNL1        0.0939
     27 N         142.7599  143.5495  161.0577 N.3     1  UNL1       -0.2712
     28 C         142.0469  144.5359  161.9343 C.3     1  UNL1        0.0722
     29 C         142.9609  144.8932  163.0689 C.3     1  UNL1        0.0188
     30 C         144.2388  144.1274  162.8933 C.3     1  UNL1        0.0188
     31 C         144.1145  143.2970  161.6504 C.3     1  UNL1        0.0722
@<TRIPOS>BOND
     1    22    23    1
     2    23    24    1
     3    23    18    1
     4    18    19   am
     5    19    20    2
     6    19    12    1
     7    12    13   ar
     8    13    14   ar
     9    14    15   ar
    10    15     1    1
    11     1     2   ar
    12     2     3   ar
    13     3     4   ar
    14     4     5   ar
    15     5     6   ar
    16     5     7    1
    17     7     8    1
    18     8     9    1
    19     9    25    1
    20    25    26    1
    21    26    27    1
    22    27    28    1
    23    28    29    1
    24    29    30    1
    25    30    31    1
    26     9    10   am
    27    10    11    2
    28    15    16   ar
    29    16    17   ar
    30    17    12   ar
    31     6     1   ar
    32    31    27    1
    33    10     4    1
    34    18    21    1
