@<TRIPOS>MOLECULE
*****
 31 34 0 0 0
SMALL
GASTEIGER

@<TRIPOS>ATOM
      1 N         142.4308  141.7149  165.0917 N.3     1  UNL1       -0.2659
      2 C         143.0064  141.1504  163.8267 C.3     1  UNL1        0.0941
      3 C         142.7782  141.8516  162.5205 C.3     1  UNL1        0.1081
      4 N         141.9743  143.1173  162.4792 N.pl3   1  UNL1       -0.3046
      5 C         141.3986  143.6818  163.7440 C.3     1  UNL1        0.1081
      6 C         141.6268  142.9806  165.0503 C.3     1  UNL1        0.0941
      7 C         141.7460  143.8184  161.1729 C.ar    1  UNL1        0.0479
      8 C         142.5688  143.4546  159.9726 C.ar    1  UNL1        0.0145
      9 C         142.3405  144.1558  158.6664 C.ar    1  UNL1        0.0051
     10 C         141.2895  145.2208  158.5604 C.ar    1  UNL1        0.0715
     11 C         140.4668  145.5846  159.7607 C.ar    1  UNL1        0.0051
     12 C         140.6951  144.8835  161.0670 C.ar    1  UNL1        0.0145
     13 C         141.0613  145.9220  157.2542 C.3     1  UNL1        0.4186
     14 F         140.8331  146.6232  155.9480 F       1  UNL1       -0.1659
     15 F         142.4976  146.3539  157.2351 F       1  UNL1       -0.1659
     16 F         139.6250  145.4900  157.2734 F       1  UNL1       -0.1659
     17 C         142.6590  141.0138  166.3979 C.3     1  UNL1        0.1007
     18 C         140.4596  141.4807  169.6681 C.ar    1  UNL1        0.0702
     19 C         141.5835  141.6183  168.6843 C.ar    1  UNL1        0.0044
     20 C         141.5351  140.8762  167.3817 C.ar    1  UNL1        0.0103
     21 C         140.3627  139.9965  167.0628 C.ar    1  UNL1        0.0642
     22 C         140.3142  139.2544  165.7602 C.ar    1  UNL1        0.0174
     23 C         139.1419  138.3747  165.4414 C.ar    1  UNL1        0.0030
     24 C         138.0180  138.2371  166.4252 C.ar    1  UNL1        0.0191
     25 C         138.0664  138.9792  167.7278 C.ar    1  UNL1        0.0829
     26 N         139.2388  139.8589  168.0466 N.ar    1  UNL1       -0.2734
     27 C         139.2873  140.6010  169.3493 C.ar    1  UNL1        0.2658
     28 O         138.1634  140.4634  170.3331 O.2     1  UNL1       -0.2666
     29 O         141.6556  142.0099  171.9131 O.co2   1  UNL1       -0.5444
     30 C         140.5081  142.2229  170.9708 C.2     1  UNL1        0.0775
     31 O         139.4091  143.1780  171.3312 O.co2   1  UNL1       -0.5444
@<TRIPOS>UNITY_ATOM_ATTR
29 1
charge -1
@<TRIPOS>BOND
     1    29    30   ar
     2    30    31   ar
     3    30    18    1
     4    18    19   ar
     5    19    20   ar
     6    20    17    1
     7    17     1    1
     8     1     2    1
     9     2     3    1
    10     3     4    1
    11     4     7    1
    12     7     8   ar
    13     8     9   ar
    14     9    10   ar
    15    10    13    1
    16    13    14    1
    17    13    15    1
    18    13    16    1
    19    10    11   ar
    20    11    12   ar
    21     4     5    1
    22     5     6    1
    23    20    21   ar
    24    21    22   ar
    25    22    23   ar
    26    23    24   ar
    27    24    25   ar
    28    25    26   ar
    29    26    27   ar
    30    27    28    2
    31    27    18   ar
    32     6     1    1
    33    26    21   ar
    34    12     7   ar
@<TRIPOS>MOLECULE
*****
 31 34 0 0 0
SMALL
GASTEIGER

@<TRIPOS>ATOM
      1 N         142.4113  141.7748  165.0262 N.3     1  UNL1       -0.2659
      2 C         143.1863  141.3661  163.8086 C.3     1  UNL1        0.0941
      3 C         142.9580  142.0690  162.5033 C.3     1  UNL1        0.1081
      4 N         141.9547  143.1807  162.4156 N.pl3   1  UNL1       -0.3046
      5 C         141.1798  143.5894  163.6331 C.3     1  UNL1        0.1081
      6 C         141.4080  142.8864  164.9384 C.3     1  UNL1        0.0941
      7 C         141.7265  143.8837  161.1104 C.ar    1  UNL1        0.0479
      8 C         140.7102  144.9831  161.0183 C.ar    1  UNL1        0.0145
      9 C         140.4819  145.6861  159.7131 C.ar    1  UNL1        0.0051
     10 C         141.2699  145.2897  158.4999 C.ar    1  UNL1        0.0715
     11 C         142.2862  144.1903  158.5919 C.ar    1  UNL1        0.0051
     12 C         142.5145  143.4873  159.8971 C.ar    1  UNL1        0.0145
     13 C         141.0416  145.9927  157.1946 C.3     1  UNL1        0.4186
     14 F         140.8133  146.6957  155.8893 F       1  UNL1       -0.1659
     15 F         139.7745  146.5856  157.7356 F       1  UNL1       -0.1659
     16 F         142.3088  145.3997  156.6537 F       1  UNL1       -0.1659
     17 C         142.6395  141.0718  166.3314 C.3     1  UNL1        0.1007
     18 C         140.4030  141.5146  169.5797 C.ar    1  UNL1        0.0702
     19 C         141.5317  141.6699  168.6040 C.ar    1  UNL1        0.0044
     20 C         141.5109  140.9165  167.3071 C.ar    1  UNL1        0.0103
     21 C         140.3613  140.0079  166.9858 C.ar    1  UNL1        0.0642
     22 C         140.3406  139.2546  165.6889 C.ar    1  UNL1        0.0174
     23 C         139.1911  138.3461  165.3677 C.ar    1  UNL1        0.0030
     24 C         138.0624  138.1909  166.3434 C.ar    1  UNL1        0.0191
     25 C         138.0832  138.9442  167.6403 C.ar    1  UNL1        0.0829
     26 N         139.2327  139.8527  167.9615 N.ar    1  UNL1       -0.2734
     27 C         139.2535  140.6061  169.2585 C.ar    1  UNL1        0.2658
     28 O         138.1248  140.4508  170.2342 O.2     1  UNL1       -0.2666
     29 O         139.3620  143.2861  171.1698 O.co2   1  UNL1       -0.5444
     30 C         140.4238  142.2680  170.8767 C.2     1  UNL1        0.0775
     31 O         141.5065  142.0032  171.8805 O.co2   1  UNL1       -0.5444
@<TRIPOS>UNITY_ATOM_ATTR
29 1
charge -1
@<TRIPOS>BOND
     1    29    30   ar
     2    30    31   ar
     3    30    18    1
     4    18    19   ar
     5    19    20   ar
     6    20    17    1
     7    17     1    1
     8     1     2    1
     9     2     3    1
    10     3     4    1
    11     4     7    1
    12     7     8   ar
    13     8     9   ar
    14     9    10   ar
    15    10    13    1
    16    13    14    1
    17    13    15    1
    18    13    16    1
    19    10    11   ar
    20    11    12   ar
    21     4     5    1
    22     5     6    1
    23    20    21   ar
    24    21    22   ar
    25    22    23   ar
    26    23    24   ar
    27    24    25   ar
    28    25    26   ar
    29    26    27   ar
    30    27    28    2
    31    27    18   ar
    32     6     1    1
    33    26    21   ar
    34    12     7   ar
@<TRIPOS>MOLECULE
*****
 31 34 0 0 0
SMALL
GASTEIGER

@<TRIPOS>ATOM
      1 N         142.7646  141.9068  164.5236 N.3     1  UNL1       -0.2659
      2 C         141.8217  143.0723  164.4722 C.3     1  UNL1        0.0941
      3 C         141.5487  143.7590  163.1669 C.3     1  UNL1        0.1081
      4 N         142.2186  143.2804  161.9131 N.pl3   1  UNL1       -0.3046
      5 C         143.1615  142.1149  161.9645 C.3     1  UNL1        0.1081
      6 C         143.4345  141.4281  163.2698 C.3     1  UNL1        0.0941
      7 C         141.9456  143.9672  160.6078 C.ar    1  UNL1        0.0479
      8 C         142.7711  143.6371  159.3996 C.ar    1  UNL1        0.0145
      9 C         142.4981  144.3239  158.0943 C.ar    1  UNL1        0.0051
     10 C         141.3997  145.3407  157.9972 C.ar    1  UNL1        0.0715
     11 C         140.5742  145.6708  159.2053 C.ar    1  UNL1        0.0051
     12 C         140.8471  144.9840  160.5106 C.ar    1  UNL1        0.0145
     13 C         141.1267  146.0275  156.6919 C.3     1  UNL1        0.4186
     14 F         140.8537  146.7143  155.3865 F       1  UNL1       -0.1659
     15 F         142.3662  145.4149  156.1103 F       1  UNL1       -0.1659
     16 F         139.8872  146.6401  157.2734 F       1  UNL1       -0.1659
     17 C         143.0376  141.2200  165.8289 C.3     1  UNL1        0.1007
     18 C         139.5988  139.7774  167.1869 C.ar    1  UNL1        0.0702
     19 C         140.7318  140.1028  166.2592 C.ar    1  UNL1        0.0044
     20 C         141.9046  140.8946  166.7566 C.ar    1  UNL1        0.0103
     21 C         141.9445  141.3612  168.1817 C.ar    1  UNL1        0.0642
     22 C         143.1173  142.1531  168.6790 C.ar    1  UNL1        0.0174
     23 C         143.1571  142.6196  170.1041 C.ar    1  UNL1        0.0030
     24 C         142.0242  142.2942  171.0317 C.ar    1  UNL1        0.0191
     25 C         140.8514  141.5024  170.5343 C.ar    1  UNL1        0.0829
     26 N         140.8115  141.0358  169.1093 N.ar    1  UNL1       -0.2734
     27 C         139.6387  140.2439  168.6119 C.ar    1  UNL1        0.2658
     28 O         138.5057  139.9186  169.5395 O.2     1  UNL1       -0.2666
     29 O         138.2033  138.8207  165.2153 O.co2   1  UNL1       -0.5444
     30 C         138.4260  138.9855  166.6894 C.2     1  UNL1        0.0775
     31 O         137.4759  138.3584  167.6662 O.co2   1  UNL1       -0.5444
@<TRIPOS>UNITY_ATOM_ATTR
29 1
charge -1
@<TRIPOS>BOND
     1    29    30   ar
     2    30    31   ar
     3    30    18    1
     4    18    19   ar
     5    19    20   ar
     6    20    17    1
     7    17     1    1
     8     1     2    1
     9     2     3    1
    10     3     4    1
    11     4     7    1
    12     7     8   ar
    13     8     9   ar
    14     9    10   ar
    15    10    13    1
    16    13    14    1
    17    13    15    1
    18    13    16    1
    19    10    11   ar
    20    11    12   ar
    21     4     5    1
    22     5     6    1
    23    20    21   ar
    24    21    22   ar
    25    22    23   ar
    26    23    24   ar
    27    24    25   ar
    28    25    26   ar
    29    26    27   ar
    30    27    28    2
    31    27    18   ar
    32     6     1    1
    33    26    21   ar
    34    12     7   ar
@<TRIPOS>MOLECULE
*****
 31 34 0 0 0
SMALL
GASTEIGER

@<TRIPOS>ATOM
      1 N         138.5980  140.3620  160.8395 N.3     1  UNL1       -0.2659
      2 C         137.7126  141.1733  161.7384 C.3     1  UNL1        0.0941
      3 C         137.8885  141.1033  163.2264 C.3     1  UNL1        0.1081
      4 N         138.9498  140.2220  163.8155 N.pl3   1  UNL1       -0.3046
      5 C         139.8351  139.4108  162.9167 C.3     1  UNL1        0.1081
      6 C         139.6593  139.4808  161.4286 C.3     1  UNL1        0.0941
      7 C         139.1256  140.1520  165.3035 C.ar    1  UNL1        0.0479
      8 C         140.2162  140.9392  165.9677 C.ar    1  UNL1        0.0145
      9 C         140.3921  140.8692  167.4557 C.ar    1  UNL1        0.0051
     10 C         139.4775  140.0120  168.2795 C.ar    1  UNL1        0.0715
     11 C         138.3869  139.2249  167.6154 C.ar    1  UNL1        0.0051
     12 C         138.2110  139.2949  166.1274 C.ar    1  UNL1        0.0145
     13 C         139.6534  139.9420  169.7675 C.3     1  UNL1        0.4186
     14 F         139.8292  139.8720  171.2556 F       1  UNL1       -0.1659
     15 F         138.2319  140.3820  169.9562 F       1  UNL1       -0.1659
     16 F         141.0749  139.5020  169.5788 F       1  UNL1       -0.1659
     17 C         138.4221  140.4320  159.3515 C.3     1  UNL1        0.1007
     18 C         140.2034  143.8372  158.3606 C.ar    1  UNL1        0.0702
     19 C         139.8720  142.5727  159.0963 C.ar    1  UNL1        0.0044
     20 C         138.7534  141.6965  158.6158 C.ar    1  UNL1        0.0103
     21 C         137.9661  142.0848  157.3994 C.ar    1  UNL1        0.0642
     22 C         136.8475  141.2086  156.9189 C.ar    1  UNL1        0.0174
     23 C         136.0602  141.5969  155.7026 C.ar    1  UNL1        0.0030
     24 C         136.3915  142.8614  154.9669 C.ar    1  UNL1        0.0191
     25 C         137.5101  143.7376  155.4474 C.ar    1  UNL1        0.0829
     26 N         138.2974  143.3493  156.6637 N.ar    1  UNL1       -0.2734
     27 C         139.4161  144.2255  157.1443 C.ar    1  UNL1        0.2658
     28 O         139.7474  145.4900  156.4086 O.2     1  UNL1       -0.2666
     29 O         141.1471  145.5416  160.0795 O.co2   1  UNL1       -0.5444
     30 C         141.3220  144.7134  158.8412 C.2     1  UNL1        0.0775
     31 O         142.6157  144.7614  158.0834 O.co2   1  UNL1       -0.5444
@<TRIPOS>UNITY_ATOM_ATTR
29 1
charge -1
@<TRIPOS>BOND
     1    29    30   ar
     2    30    31   ar
     3    30    18    1
     4    18    19   ar
     5    19    20   ar
     6    20    17    1
     7    17     1    1
     8     1     2    1
     9     2     3    1
    10     3     4    1
    11     4     7    1
    12     7     8   ar
    13     8     9   ar
    14     9    10   ar
    15    10    13    1
    16    13    14    1
    17    13    15    1
    18    13    16    1
    19    10    11   ar
    20    11    12   ar
    21     4     5    1
    22     5     6    1
    23    20    21   ar
    24    21    22   ar
    25    22    23   ar
    26    23    24   ar
    27    24    25   ar
    28    25    26   ar
    29    26    27   ar
    30    27    28    2
    31    27    18   ar
    32     6     1    1
    33    26    21   ar
    34    12     7   ar
@<TRIPOS>MOLECULE
*****
 31 34 0 0 0
SMALL
GASTEIGER

@<TRIPOS>ATOM
      1 N         143.7095  140.5491  158.7444 N.3     1  UNL1       -0.2659
      2 C         143.7314  140.4076  157.2512 C.3     1  UNL1        0.0941
      3 C         143.3356  139.1082  156.6151 C.3     1  UNL1        0.1081
      4 N         142.9180  137.9501  157.4721 N.pl3   1  UNL1       -0.3046
      5 C         142.8961  138.0915  158.9652 C.3     1  UNL1        0.1081
      6 C         143.2919  139.3910  159.6014 C.3     1  UNL1        0.0941
      7 C         142.5222  136.6506  156.8360 C.ar    1  UNL1        0.0479
      8 C         143.2345  135.3847  157.2103 C.ar    1  UNL1        0.0145
      9 C         142.8387  134.0852  156.5742 C.ar    1  UNL1        0.0051
     10 C         141.7307  134.0516  155.5637 C.ar    1  UNL1        0.0715
     11 C         141.0184  135.3174  155.1894 C.ar    1  UNL1        0.0051
     12 C         141.4141  136.6170  155.8255 C.ar    1  UNL1        0.0145
     13 C         141.3349  132.7521  154.9276 C.3     1  UNL1        0.4186
     14 F         140.9391  131.4526  154.2914 F       1  UNL1       -0.1659
     15 F         140.8723  133.4906  153.7067 F       1  UNL1       -0.1659
     16 F         141.7975  132.0136  156.1485 F       1  UNL1       -0.1659
     17 C         144.1053  141.8486  159.3805 C.3     1  UNL1        0.1007
     18 C         141.0843  143.6364  161.2317 C.ar    1  UNL1        0.0702
     19 C         141.9294  143.0469  160.1416 C.ar    1  UNL1        0.0044
     20 C         143.2602  142.4381  160.4706 C.ar    1  UNL1        0.0103
     21 C         143.7460  142.4187  161.8897 C.ar    1  UNL1        0.0642
     22 C         145.0768  141.8099  162.2186 C.ar    1  UNL1        0.0174
     23 C         145.5625  141.7906  163.6376 C.ar    1  UNL1        0.0030
     24 C         144.7173  142.3801  164.7277 C.ar    1  UNL1        0.0191
     25 C         143.3865  142.9890  164.3988 C.ar    1  UNL1        0.0829
     26 N         142.9009  143.0083  162.9797 N.ar    1  UNL1       -0.2734
     27 C         141.5700  143.6171  162.6507 C.ar    1  UNL1        0.2658
     28 O         140.7249  144.2066  163.7408 O.2     1  UNL1       -0.2666
     29 O         138.4990  143.4392  161.0659 O.co2   1  UNL1       -0.5444
     30 C         139.7534  144.2453  160.9027 C.2     1  UNL1        0.0775
     31 O         139.6771  145.6602  160.4105 O.co2   1  UNL1       -0.5444
@<TRIPOS>UNITY_ATOM_ATTR
29 1
charge -1
@<TRIPOS>BOND
     1    29    30   ar
     2    30    31   ar
     3    30    18    1
     4    18    19   ar
     5    19    20   ar
     6    20    17    1
     7    17     1    1
     8     1     2    1
     9     2     3    1
    10     3     4    1
    11     4     7    1
    12     7     8   ar
    13     8     9   ar
    14     9    10   ar
    15    10    13    1
    16    13    14    1
    17    13    15    1
    18    13    16    1
    19    10    11   ar
    20    11    12   ar
    21     4     5    1
    22     5     6    1
    23    20    21   ar
    24    21    22   ar
    25    22    23   ar
    26    23    24   ar
    27    24    25   ar
    28    25    26   ar
    29    26    27   ar
    30    27    28    2
    31    27    18   ar
    32     6     1    1
    33    26    21   ar
    34    12     7   ar
@<TRIPOS>MOLECULE
*****
 31 34 0 0 0
SMALL
GASTEIGER

@<TRIPOS>ATOM
      1 N         140.5820  143.7567  161.7312 N.3     1  UNL1       -0.2659
      2 C         141.6428  142.8317  162.2501 C.3     1  UNL1        0.0941
      3 C         141.5128  142.2349  163.6201 C.3     1  UNL1        0.1081
      4 N         140.3220  142.5630  164.4712 N.pl3   1  UNL1       -0.3046
      5 C         139.2612  143.4879  163.9524 C.3     1  UNL1        0.1081
      6 C         139.3912  144.0848  162.5823 C.3     1  UNL1        0.0941
      7 C         140.1920  141.9662  165.8412 C.ar    1  UNL1        0.0479
      8 C         140.6633  142.7330  167.0412 C.ar    1  UNL1        0.0145
      9 C         140.5333  142.1361  168.4112 C.ar    1  UNL1        0.0051
     10 C         139.9320  140.7725  168.5812 C.ar    1  UNL1        0.0715
     11 C         139.4607  140.0057  167.3813 C.ar    1  UNL1        0.0051
     12 C         139.5907  140.6025  166.0113 C.ar    1  UNL1        0.0145
     13 C         139.8020  140.1757  169.9512 C.3     1  UNL1        0.4186
     14 F         139.6719  139.5789  171.3212 F       1  UNL1       -0.1659
     15 F         138.4771  140.8578  170.1226 F       1  UNL1       -0.1659
     16 F         141.1269  139.4936  169.7798 F       1  UNL1       -0.1659
     17 C         140.7120  144.3535  160.3613 C.3     1  UNL1        0.1007
     18 C         138.8123  141.6712  158.1372 C.ar    1  UNL1        0.0702
     19 C         139.5112  142.3076  159.3019 C.ar    1  UNL1        0.0044
     20 C         140.0131  143.7172  159.1965 C.ar    1  UNL1        0.0103
     21 C         139.8161  144.4905  157.9264 C.ar    1  UNL1        0.0642
     22 C         140.3179  145.9001  157.8210 C.ar    1  UNL1        0.0174
     23 C         140.1209  146.6733  156.5509 C.ar    1  UNL1        0.0030
     24 C         139.4220  146.0370  155.3861 C.ar    1  UNL1        0.0191
     25 C         138.9201  144.6274  155.4915 C.ar    1  UNL1        0.0829
     26 N         139.1171  143.8541  156.7616 N.ar    1  UNL1       -0.2734
     27 C         138.6152  142.4445  156.8671 C.ar    1  UNL1        0.2658
     28 O         137.9163  141.8081  155.7023 O.2     1  UNL1       -0.2666
     29 O         138.8853  139.1929  157.3610 O.co2   1  UNL1       -0.5444
     30 C         138.3104  140.2616  158.2426 C.2     1  UNL1        0.0775
     31 O         137.2336  139.9207  159.2297 O.co2   1  UNL1       -0.5444
@<TRIPOS>UNITY_ATOM_ATTR
29 1
charge -1
@<TRIPOS>BOND
     1    29    30   ar
     2    30    31   ar
     3    30    18    1
     4    18    19   ar
     5    19    20   ar
     6    20    17    1
     7    17     1    1
     8     1     2    1
     9     2     3    1
    10     3     4    1
    11     4     7    1
    12     7     8   ar
    13     8     9   ar
    14     9    10   ar
    15    10    13    1
    16    13    14    1
    17    13    15    1
    18    13    16    1
    19    10    11   ar
    20    11    12   ar
    21     4     5    1
    22     5     6    1
    23    20    21   ar
    24    21    22   ar
    25    22    23   ar
    26    23    24   ar
    27    24    25   ar
    28    25    26   ar
    29    26    27   ar
    30    27    28    2
    31    27    18   ar
    32     6     1    1
    33    26    21   ar
    34    12     7   ar
@<TRIPOS>MOLECULE
*****
 31 34 0 0 0
SMALL
GASTEIGER

@<TRIPOS>ATOM
      1 N         142.6182  138.8668  160.9165 N.3     1  UNL1       -0.2659
      2 C         142.8040  140.2160  161.5452 C.3     1  UNL1        0.0941
      3 C         142.5042  140.4125  163.0017 C.3     1  UNL1        0.1081
      4 N         142.0185  139.2598  163.8296 N.pl3   1  UNL1       -0.3046
      5 C         141.8326  137.9107  163.2010 C.3     1  UNL1        0.1081
      6 C         142.1325  137.7142  161.7444 C.3     1  UNL1        0.0941
      7 C         141.7186  139.4563  165.2861 C.ar    1  UNL1        0.0479
      8 C         142.8169  139.3367  166.3008 C.ar    1  UNL1        0.0145
      9 C         142.5170  139.5331  167.7572 C.ar    1  UNL1        0.0051
     10 C         141.1189  139.8493  168.1992 C.ar    1  UNL1        0.0715
     11 C         140.0206  139.9690  167.1846 C.ar    1  UNL1        0.0051
     12 C         140.3205  139.7725  165.7280 C.ar    1  UNL1        0.0145
     13 C         140.8190  140.0458  169.6556 C.3     1  UNL1        0.4186
     14 F         140.5191  140.2423  171.1122 F       1  UNL1       -0.1659
     15 F         139.8679  141.1531  169.3105 F       1  UNL1       -0.1659
     16 F         141.7701  138.9385  170.0008 F       1  UNL1       -0.1659
     17 C         142.9181  138.6704  159.4600 C.3     1  UNL1        0.1007
     18 C         139.5346  139.3835  157.5124 C.ar    1  UNL1        0.0702
     19 C         140.6574  139.5155  158.4982 C.ar    1  UNL1        0.0044
     20 C         141.7952  138.5384  158.4742 C.ar    1  UNL1        0.0103
     21 C         141.8102  137.4292  157.4645 C.ar    1  UNL1        0.0642
     22 C         142.9480  136.4521  157.4405 C.ar    1  UNL1        0.0174
     23 C         142.9629  135.3430  156.4307 C.ar    1  UNL1        0.0030
     24 C         141.8401  135.2110  155.4450 C.ar    1  UNL1        0.0191
     25 C         140.7023  136.1881  155.4689 C.ar    1  UNL1        0.0829
     26 N         140.6873  137.2972  156.4787 N.ar    1  UNL1       -0.2734
     27 C         139.5495  138.2744  156.5027 C.ar    1  UNL1        0.2658
     28 O         138.4266  138.1424  155.5169 O.2     1  UNL1       -0.2666
     29 O         138.3217  141.4499  156.5079 O.co2   1  UNL1       -0.5444
     30 C         138.3967  140.3607  157.5364 C.2     1  UNL1        0.0775
     31 O         137.3339  140.2485  158.5890 O.co2   1  UNL1       -0.5444
@<TRIPOS>UNITY_ATOM_ATTR
29 1
charge -1
@<TRIPOS>BOND
     1    29    30   ar
     2    30    31   ar
     3    30    18    1
     4    18    19   ar
     5    19    20   ar
     6    20    17    1
     7    17     1    1
     8     1     2    1
     9     2     3    1
    10     3     4    1
    11     4     7    1
    12     7     8   ar
    13     8     9   ar
    14     9    10   ar
    15    10    13    1
    16    13    14    1
    17    13    15    1
    18    13    16    1
    19    10    11   ar
    20    11    12   ar
    21     4     5    1
    22     5     6    1
    23    20    21   ar
    24    21    22   ar
    25    22    23   ar
    26    23    24   ar
    27    24    25   ar
    28    25    26   ar
    29    26    27   ar
    30    27    28    2
    31    27    18   ar
    32     6     1    1
    33    26    21   ar
    34    12     7   ar
@<TRIPOS>MOLECULE
*****
 31 34 0 0 0
SMALL
GASTEIGER

@<TRIPOS>ATOM
      1 N         140.1130  143.5604  164.4501 N.3     1  UNL1       -0.2659
      2 C         141.1824  144.4668  163.9165 C.3     1  UNL1        0.0941
      3 C         141.2798  144.7252  162.4422 C.3     1  UNL1        0.1081
      4 N         140.3077  144.0771  161.5014 N.pl3   1  UNL1       -0.3046
      5 C         139.2383  143.1707  162.0349 C.3     1  UNL1        0.1081
      6 C         139.1409  142.9123  163.5093 C.3     1  UNL1        0.0941
      7 C         140.4051  144.3355  160.0270 C.ar    1  UNL1        0.0479
      8 C         141.3617  145.3678  159.5080 C.ar    1  UNL1        0.0145
      9 C         141.4591  145.6262  158.0337 C.ar    1  UNL1        0.0051
     10 C         140.5999  144.8523  157.0783 C.ar    1  UNL1        0.0715
     11 C         139.6433  143.8200  157.5972 C.ar    1  UNL1        0.0051
     12 C         139.5459  143.5616  159.0716 C.ar    1  UNL1        0.0145
     13 C         140.6972  145.1106  155.6039 C.3     1  UNL1        0.4186
     14 F         140.7946  145.3690  154.1295 F       1  UNL1       -0.1659
     15 F         141.1201  143.6886  155.3827 F       1  UNL1       -0.1659
     16 F         140.2744  146.5326  155.8252 F       1  UNL1       -0.1659
     17 C         140.0156  143.3020  165.9245 C.3     1  UNL1        0.1007
     18 C         142.1914  140.0027  166.2861 C.ar    1  UNL1        0.0702
     19 C         141.4145  141.1277  165.6688 C.ar    1  UNL1        0.0044
     20 C         140.7925  142.1770  166.5417 C.ar    1  UNL1        0.0103
     21 C         140.9472  142.1014  168.0318 C.ar    1  UNL1        0.0642
     22 C         140.3252  143.1508  168.9046 C.ar    1  UNL1        0.0174
     23 C         140.4800  143.0751  170.3947 C.ar    1  UNL1        0.0030
     24 C         141.2568  141.9502  171.0119 C.ar    1  UNL1        0.0191
     25 C         141.8789  140.9008  170.1391 C.ar    1  UNL1        0.0829
     26 N         141.7241  140.9765  168.6490 N.ar    1  UNL1       -0.2734
     27 C         142.3461  139.9271  167.7761 C.ar    1  UNL1        0.2658
     28 O         143.1230  138.8021  168.3933 O.2     1  UNL1       -0.2666
     29 O         141.9712  137.8423  164.8598 O.co2   1  UNL1       -0.5444
     30 C         142.8134  138.9533  165.4131 C.2     1  UNL1        0.0775
     31 O         144.2777  139.0150  165.0937 O.co2   1  UNL1       -0.5444
@<TRIPOS>UNITY_ATOM_ATTR
29 1
charge -1
@<TRIPOS>BOND
     1    29    30   ar
     2    30    31   ar
     3    30    18    1
     4    18    19   ar
     5    19    20   ar
     6    20    17    1
     7    17     1    1
     8     1     2    1
     9     2     3    1
    10     3     4    1
    11     4     7    1
    12     7     8   ar
    13     8     9   ar
    14     9    10   ar
    15    10    13    1
    16    13    14    1
    17    13    15    1
    18    13    16    1
    19    10    11   ar
    20    11    12   ar
    21     4     5    1
    22     5     6    1
    23    20    21   ar
    24    21    22   ar
    25    22    23   ar
    26    23    24   ar
    27    24    25   ar
    28    25    26   ar
    29    26    27   ar
    30    27    28    2
    31    27    18   ar
    32     6     1    1
    33    26    21   ar
    34    12     7   ar
@<TRIPOS>MOLECULE
*****
 31 34 0 0 0
SMALL
GASTEIGER

@<TRIPOS>ATOM
      1 N         139.8088  142.6736  161.2624 N.3     1  UNL1       -0.2659
      2 C         140.9574  143.0667  162.1435 C.3     1  UNL1        0.0941
      3 C         140.9662  142.6640  163.5884 C.3     1  UNL1        0.1081
      4 N         139.8265  141.8683  164.1522 N.pl3   1  UNL1       -0.3046
      5 C         138.6779  141.4752  163.2712 C.3     1  UNL1        0.1081
      6 C         138.6691  141.8779  161.8262 C.3     1  UNL1        0.0941
      7 C         139.8353  141.4656  165.5971 C.ar    1  UNL1        0.0479
      8 C         139.2496  140.1485  166.0123 C.ar    1  UNL1        0.0145
      9 C         139.2584  139.7458  167.4571 C.ar    1  UNL1        0.0051
     10 C         139.8529  140.6602  168.4869 C.ar    1  UNL1        0.0715
     11 C         140.4385  141.9773  168.0719 C.ar    1  UNL1        0.0051
     12 C         140.4297  142.3800  166.6269 C.ar    1  UNL1        0.0145
     13 C         139.8617  140.2576  169.9318 C.3     1  UNL1        0.4186
     14 F         139.8706  139.8549  171.3768 F       1  UNL1       -0.1659
     15 F         141.0597  139.3899  169.6827 F       1  UNL1       -0.1659
     16 F         138.6638  141.1252  170.1809 F       1  UNL1       -0.1659
     17 C         139.8000  143.0763  159.8175 C.3     1  UNL1        0.1007
     18 C         137.6408  141.1844  157.0773 C.ar    1  UNL1        0.0702
     19 C         138.0426  142.1751  158.1295 C.ar    1  UNL1        0.0044
     20 C         139.3982  142.0856  158.7653 C.ar    1  UNL1        0.0103
     21 C         140.3521  141.0055  158.3488 C.ar    1  UNL1        0.0642
     22 C         141.7077  140.9160  158.9846 C.ar    1  UNL1        0.0174
     23 C         142.6616  139.8359  158.5681 C.ar    1  UNL1        0.0030
     24 C         142.2598  138.8452  157.5159 C.ar    1  UNL1        0.0191
     25 C         140.9042  138.9347  156.8801 C.ar    1  UNL1        0.0829
     26 N         139.9503  140.0148  157.2966 N.ar    1  UNL1       -0.2734
     27 C         138.5946  140.1043  156.6608 C.ar    1  UNL1        0.2658
     28 O         138.1928  139.1137  155.6086 O.2     1  UNL1       -0.2666
     29 O         135.9955  142.3538  155.4415 O.co2   1  UNL1       -0.5444
     30 C         136.2851  141.2739  156.4415 C.2     1  UNL1        0.0775
     31 O         135.2191  140.2835  156.8057 O.co2   1  UNL1       -0.5444
@<TRIPOS>UNITY_ATOM_ATTR
29 1
charge -1
@<TRIPOS>BOND
     1    29    30   ar
     2    30    31   ar
     3    30    18    1
     4    18    19   ar
     5    19    20   ar
     6    20    17    1
     7    17     1    1
     8     1     2    1
     9     2     3    1
    10     3     4    1
    11     4     7    1
    12     7     8   ar
    13     8     9   ar
    14     9    10   ar
    15    10    13    1
    16    13    14    1
    17    13    15    1
    18    13    16    1
    19    10    11   ar
    20    11    12   ar
    21     4     5    1
    22     5     6    1
    23    20    21   ar
    24    21    22   ar
    25    22    23   ar
    26    23    24   ar
    27    24    25   ar
    28    25    26   ar
    29    26    27   ar
    30    27    28    2
    31    27    18   ar
    32     6     1    1
    33    26    21   ar
    34    12     7   ar
