@<TRIPOS>MOLECULE
*****
 20 22 0 0 0
SMALL
GASTEIGER

@<TRIPOS>ATOM
      1 C         138.9506  140.1292  164.8263 C.ar    1  UNL1        0.1484
      2 C         138.1046  139.4013  165.8285 C.ar    1  UNL1        0.0796
      3 C         138.4784  139.4211  167.2810 C.ar    1  UNL1        0.2017
      4 O         137.6323  138.6932  168.2832 O.2     1  UNL1       -0.2864
      5 C         139.6983  140.1688  167.7314 C.ar    1  UNL1        0.0744
      6 C         140.0721  140.1886  169.1839 C.ar    1  UNL1        0.0176
      7 C         141.2920  140.9363  169.6342 C.ar    1  UNL1        0.0580
      8 CL        141.6659  140.9561  171.0868 Cl      1  UNL1       -0.0822
      9 C         142.1380  141.6642  168.6320 C.ar    1  UNL1        0.0145
     10 C         141.7642  141.6444  167.1795 C.ar    1  UNL1        0.0385
     11 C         140.5444  140.8967  166.7292 C.ar    1  UNL1        0.1483
     12 O         140.1705  140.8769  165.2766 O.2     1  UNL1       -0.4533
     13 C         137.8291  140.0696  160.4687 C.ar    1  UNL1        0.1387
     14 C         137.9135  138.7853  161.2390 C.ar    1  UNL1        0.0370
     15 C         138.2874  138.8052  162.6915 C.ar    1  UNL1        0.0061
     16 C         138.5768  140.1093  163.3737 C.ar    1  UNL1        0.0349
     17 C         138.4923  141.3936  162.6034 C.ar    1  UNL1        0.0061
     18 C         138.1184  141.3738  161.1509 C.ar    1  UNL1        0.0370
     19 C         138.1477  140.9656  158.0509 C.3     1  UNL1        0.2525
     20 O         137.4552  140.0498  159.0162 O.3     1  UNL1       -0.4714
@<TRIPOS>BOND
     1    19    20    1
     2    20    13    1
     3    13    14   ar
     4    14    15   ar
     5    15    16   ar
     6    16     1    1
     7     1     2   ar
     8     2     3   ar
     9     3     4    2
    10     3     5   ar
    11     5     6   ar
    12     6     7   ar
    13     7     8    1
    14     7     9   ar
    15     9    10   ar
    16    10    11   ar
    17    11    12   ar
    18    16    17   ar
    19    17    18   ar
    20    18    13   ar
    21    12     1   ar
    22    11     5   ar
@<TRIPOS>MOLECULE
*****
 20 22 0 0 0
SMALL
GASTEIGER

@<TRIPOS>ATOM
      1 C         138.8794  140.4412  163.8153 C.ar    1  UNL1        0.1484
      2 C         138.3279  141.7122  163.2407 C.ar    1  UNL1        0.0796
      3 C         138.2241  141.8801  161.7538 C.ar    1  UNL1        0.2017
      4 O         137.6726  143.1511  161.1791 O.2     1  UNL1       -0.2864
      5 C         138.6718  140.7767  160.8414 C.ar    1  UNL1        0.0744
      6 C         138.5680  140.9446  159.3545 C.ar    1  UNL1        0.0176
      7 C         139.0156  139.8413  158.4422 C.ar    1  UNL1        0.0580
      8 CL        138.9118  140.0091  156.9551 Cl      1  UNL1       -0.0822
      9 C         139.5671  138.5702  159.0168 C.ar    1  UNL1        0.0145
     10 C         139.6709  138.4024  160.5037 C.ar    1  UNL1        0.0385
     11 C         139.2233  139.5057  161.4160 C.ar    1  UNL1        0.1483
     12 O         139.3271  139.3379  162.9030 O.2     1  UNL1       -0.4533
     13 C         139.1909  139.9379  168.2762 C.ar    1  UNL1        0.1387
     14 C         140.0355  140.9608  167.5761 C.ar    1  UNL1        0.0370
     15 C         139.9316  141.1286  166.0892 C.ar    1  UNL1        0.0061
     16 C         138.9832  140.2734  165.3024 C.ar    1  UNL1        0.0349
     17 C         138.1386  139.2504  166.0025 C.ar    1  UNL1        0.0061
     18 C         138.2424  139.0827  167.4894 C.ar    1  UNL1        0.0370
     19 C         140.6242  139.9126  170.4431 C.3     1  UNL1        0.2525
     20 O         139.2947  139.7701  169.7633 O.3     1  UNL1       -0.4714
@<TRIPOS>BOND
     1    19    20    1
     2    20    13    1
     3    13    14   ar
     4    14    15   ar
     5    15    16   ar
     6    16     1    1
     7     1     2   ar
     8     2     3   ar
     9     3     4    2
    10     3     5   ar
    11     5     6   ar
    12     6     7   ar
    13     7     8    1
    14     7     9   ar
    15     9    10   ar
    16    10    11   ar
    17    11    12   ar
    18    16    17   ar
    19    17    18   ar
    20    18    13   ar
    21    12     1   ar
    22    11     5   ar
@<TRIPOS>MOLECULE
*****
 20 22 0 0 0
SMALL
GASTEIGER

@<TRIPOS>ATOM
      1 C         140.8809  142.7656  164.9339 C.ar    1  UNL1        0.1484
      2 C         140.3447  143.3039  166.2272 C.ar    1  UNL1        0.0796
      3 C         140.6158  142.5781  167.5116 C.ar    1  UNL1        0.2017
      4 O         140.0795  143.1163  168.8049 O.2     1  UNL1       -0.2864
      5 C         141.4232  141.3139  167.5026 C.ar    1  UNL1        0.0744
      6 C         141.6943  140.5881  168.7870 C.ar    1  UNL1        0.0176
      7 C         142.5017  139.3239  168.7780 C.ar    1  UNL1        0.0580
      8 CL        142.7729  138.5980  170.0624 Cl      1  UNL1       -0.0822
      9 C         143.0380  138.7857  167.4847 C.ar    1  UNL1        0.0145
     10 C         142.7668  139.5115  166.2003 C.ar    1  UNL1        0.0385
     11 C         141.9595  140.7756  166.2093 C.ar    1  UNL1        0.1483
     12 O         141.6883  141.5015  164.9249 O.2     1  UNL1       -0.4533
     13 C         140.0674  144.9432  161.0808 C.ar    1  UNL1        0.1387
     14 C         139.9458  143.4492  161.1380 C.ar    1  UNL1        0.0370
     15 C         140.2170  142.7234  162.4224 C.ar    1  UNL1        0.0061
     16 C         140.6097  143.4915  163.6495 C.ar    1  UNL1        0.0349
     17 C         140.7313  144.9855  163.5922 C.ar    1  UNL1        0.0061
     18 C         140.4602  145.7113  162.3079 C.ar    1  UNL1        0.0370
     19 C         140.7338  145.5153  158.6356 C.3     1  UNL1        0.2525
     20 O         139.7963  145.6691  159.7964 O.3     1  UNL1       -0.4714
@<TRIPOS>BOND
     1    19    20    1
     2    20    13    1
     3    13    14   ar
     4    14    15   ar
     5    15    16   ar
     6    16     1    1
     7     1     2   ar
     8     2     3   ar
     9     3     4    2
    10     3     5   ar
    11     5     6   ar
    12     6     7   ar
    13     7     8    1
    14     7     9   ar
    15     9    10   ar
    16    10    11   ar
    17    11    12   ar
    18    16    17   ar
    19    17    18   ar
    20    18    13   ar
    21    12     1   ar
    22    11     5   ar
@<TRIPOS>MOLECULE
*****
 20 22 0 0 0
SMALL
GASTEIGER

@<TRIPOS>ATOM
      1 C         139.7450  142.5104  164.5129 C.ar    1  UNL1        0.1484
      2 C         138.9962  141.2108  164.5316 C.ar    1  UNL1        0.0796
      3 C         138.9321  140.4003  165.7922 C.ar    1  UNL1        0.2017
      4 O         138.1833  139.1007  165.8109 O.2     1  UNL1       -0.2864
      5 C         139.6168  140.8894  167.0340 C.ar    1  UNL1        0.0744
      6 C         139.5526  140.0790  168.2945 C.ar    1  UNL1        0.0176
      7 C         140.2373  140.5681  169.5362 C.ar    1  UNL1        0.0580
      8 CL        140.1732  139.7576  170.7969 Cl      1  UNL1       -0.0822
      9 C         140.9861  141.8677  169.5175 C.ar    1  UNL1        0.0145
     10 C         141.0502  142.6782  168.2570 C.ar    1  UNL1        0.0385
     11 C         140.3655  142.1891  167.0152 C.ar    1  UNL1        0.1483
     12 O         140.4296  142.9996  165.7546 O.2     1  UNL1       -0.4533
     13 C         139.9373  144.9419  160.7312 C.ar    1  UNL1        0.1387
     14 C         139.8029  145.6283  162.0582 C.ar    1  UNL1        0.0370
     15 C         139.7388  144.8178  163.3187 C.ar    1  UNL1        0.0061
     16 C         139.8091  143.3209  163.2523 C.ar    1  UNL1        0.0349
     17 C         139.9434  142.6346  161.9253 C.ar    1  UNL1        0.0061
     18 C         140.0075  143.4451  160.6648 C.ar    1  UNL1        0.0370
     19 C         141.0626  145.4682  158.4494 C.3     1  UNL1        0.2525
     20 O         140.0013  145.7524  159.4706 O.3     1  UNL1       -0.4714
@<TRIPOS>BOND
     1    19    20    1
     2    20    13    1
     3    13    14   ar
     4    14    15   ar
     5    15    16   ar
     6    16     1    1
     7     1     2   ar
     8     2     3   ar
     9     3     4    2
    10     3     5   ar
    11     5     6   ar
    12     6     7   ar
    13     7     8    1
    14     7     9   ar
    15     9    10   ar
    16    10    11   ar
    17    11    12   ar
    18    16    17   ar
    19    17    18   ar
    20    18    13   ar
    21    12     1   ar
    22    11     5   ar
@<TRIPOS>MOLECULE
*****
 20 22 0 0 0
SMALL
GASTEIGER

@<TRIPOS>ATOM
      1 C         141.4778  143.8106  163.3935 C.ar    1  UNL1        0.1484
      2 C         140.4814  144.8921  163.0973 C.ar    1  UNL1        0.0796
      3 C         140.3396  145.4191  161.7001 C.ar    1  UNL1        0.2017
      4 O         139.3432  146.5005  161.4040 O.2     1  UNL1       -0.2864
      5 C         141.1942  144.8646  160.5990 C.ar    1  UNL1        0.0744
      6 C         141.0524  145.3917  159.2019 C.ar    1  UNL1        0.0176
      7 C         141.9070  144.8372  158.1009 C.ar    1  UNL1        0.0580
      8 CL        141.7652  145.3642  156.7036 Cl      1  UNL1       -0.0822
      9 C         142.9034  143.7558  158.3970 C.ar    1  UNL1        0.0145
     10 C         143.0452  143.2287  159.7942 C.ar    1  UNL1        0.0385
     11 C         142.1906  143.7832  160.8952 C.ar    1  UNL1        0.1483
     12 O         142.3324  143.2562  162.2925 O.2     1  UNL1       -0.4533
     13 C         141.9030  142.2297  167.5851 C.ar    1  UNL1        0.1387
     14 C         140.5672  142.7034  167.0941 C.ar    1  UNL1        0.0370
     15 C         140.4254  143.2304  165.6970 C.ar    1  UNL1        0.0061
     16 C         141.6196  143.2836  164.7907 C.ar    1  UNL1        0.0349
     17 C         142.9554  142.8098  165.2817 C.ar    1  UNL1        0.0061
     18 C         143.0971  142.2829  166.6788 C.ar    1  UNL1        0.0370
     19 C         142.2324  142.6536  170.1271 C.3     1  UNL1        0.2525
     20 O         142.0448  141.7026  168.9823 O.3     1  UNL1       -0.4714
@<TRIPOS>BOND
     1    19    20    1
     2    20    13    1
     3    13    14   ar
     4    14    15   ar
     5    15    16   ar
     6    16     1    1
     7     1     2   ar
     8     2     3   ar
     9     3     4    2
    10     3     5   ar
    11     5     6   ar
    12     6     7   ar
    13     7     8    1
    14     7     9   ar
    15     9    10   ar
    16    10    11   ar
    17    11    12   ar
    18    16    17   ar
    19    17    18   ar
    20    18    13   ar
    21    12     1   ar
    22    11     5   ar
@<TRIPOS>MOLECULE
*****
 20 22 0 0 0
SMALL
GASTEIGER

@<TRIPOS>ATOM
      1 C         142.7455  140.0635  164.8423 C.ar    1  UNL1        0.1484
      2 C         143.2254  139.0845  165.8726 C.ar    1  UNL1        0.0796
      3 C         142.8936  139.2960  167.3200 C.ar    1  UNL1        0.2017
      4 O         143.3735  138.3171  168.3503 O.2     1  UNL1       -0.2864
      5 C         142.0819  140.4864  167.7373 C.ar    1  UNL1        0.0744
      6 C         141.7501  140.6979  169.1848 C.ar    1  UNL1        0.0176
      7 C         140.9384  141.8883  169.6020 C.ar    1  UNL1        0.0580
      8 CL        140.6066  142.0998  171.0495 Cl      1  UNL1       -0.0822
      9 C         140.4585  142.8672  168.5717 C.ar    1  UNL1        0.0145
     10 C         140.7902  142.6557  167.1243 C.ar    1  UNL1        0.0385
     11 C         141.6019  141.4653  166.7071 C.ar    1  UNL1        0.1483
     12 O         141.9338  141.2538  165.2595 O.2     1  UNL1       -0.4533
     13 C         143.7409  139.4290  160.4999 C.ar    1  UNL1        0.1387
     14 C         143.4840  140.8139  161.0159 C.ar    1  UNL1        0.0370
     15 C         143.1522  141.0253  162.4633 C.ar    1  UNL1        0.0061
     16 C         143.0773  139.8520  163.3948 C.ar    1  UNL1        0.0349
     17 C         143.3342  138.4671  162.8788 C.ar    1  UNL1        0.0061
     18 C         143.6660  138.2557  161.4314 C.ar    1  UNL1        0.0370
     19 C         143.3310  139.9788  157.9939 C.3     1  UNL1        0.2525
     20 O         144.0727  139.2175  159.0524 O.3     1  UNL1       -0.4714
@<TRIPOS>BOND
     1    19    20    1
     2    20    13    1
     3    13    14   ar
     4    14    15   ar
     5    15    16   ar
     6    16     1    1
     7     1     2   ar
     8     2     3   ar
     9     3     4    2
    10     3     5   ar
    11     5     6   ar
    12     6     7   ar
    13     7     8    1
    14     7     9   ar
    15     9    10   ar
    16    10    11   ar
    17    11    12   ar
    18    16    17   ar
    19    17    18   ar
    20    18    13   ar
    21    12     1   ar
    22    11     5   ar
@<TRIPOS>MOLECULE
*****
 20 22 0 0 0
SMALL
GASTEIGER

@<TRIPOS>ATOM
      1 C         139.2529  140.6508  164.8481 C.ar    1  UNL1        0.1484
      2 C         138.9608  139.2510  164.3949 C.ar    1  UNL1        0.0796
      3 C         138.6314  138.9818  162.9565 C.ar    1  UNL1        0.2017
      4 O         138.3393  137.5820  162.5034 O.2     1  UNL1       -0.2864
      5 C         138.5941  140.1122  161.9713 C.ar    1  UNL1        0.0744
      6 C         138.2647  139.8430  160.5329 C.ar    1  UNL1        0.0176
      7 C         138.2274  140.9734  159.5477 C.ar    1  UNL1        0.0580
      8 CL        137.8979  140.7042  158.1093 Cl      1  UNL1       -0.0822
      9 C         138.5195  142.3732  160.0009 C.ar    1  UNL1        0.0145
     10 C         138.8489  142.6425  161.4393 C.ar    1  UNL1        0.0385
     11 C         138.8862  141.5120  162.4245 C.ar    1  UNL1        0.1483
     12 O         139.2156  141.7813  163.8629 O.2     1  UNL1       -0.4533
     13 C         140.2412  141.4586  169.1632 C.ar    1  UNL1        0.1387
     14 C         140.5943  142.4679  168.1113 C.ar    1  UNL1        0.0370
     15 C         140.2649  142.1986  166.6730 C.ar    1  UNL1        0.0061
     16 C         139.5824  140.9201  166.2865 C.ar    1  UNL1        0.0349
     17 C         139.2292  139.9107  167.3384 C.ar    1  UNL1        0.0061
     18 C         139.5587  140.1800  168.7768 C.ar    1  UNL1        0.0370
     19 C         141.9714  142.0935  170.9946 C.3     1  UNL1        0.2525
     20 O         140.5707  141.7279  170.6017 O.3     1  UNL1       -0.4714
@<TRIPOS>BOND
     1    19    20    1
     2    20    13    1
     3    13    14   ar
     4    14    15   ar
     5    15    16   ar
     6    16     1    1
     7     1     2   ar
     8     2     3   ar
     9     3     4    2
    10     3     5   ar
    11     5     6   ar
    12     6     7   ar
    13     7     8    1
    14     7     9   ar
    15     9    10   ar
    16    10    11   ar
    17    11    12   ar
    18    16    17   ar
    19    17    18   ar
    20    18    13   ar
    21    12     1   ar
    22    11     5   ar
@<TRIPOS>MOLECULE
*****
 20 22 0 0 0
SMALL
GASTEIGER

@<TRIPOS>ATOM
      1 C         143.3973  141.7257  164.7794 C.ar    1  UNL1        0.1484
      2 C         143.7278  143.1310  164.3725 C.ar    1  UNL1        0.0796
      3 C         143.9782  143.4547  162.9294 C.ar    1  UNL1        0.2017
      4 O         144.3088  144.8601  162.5224 O.2     1  UNL1       -0.2864
      5 C         143.8980  142.3730  161.8932 C.ar    1  UNL1        0.0744
      6 C         144.1484  142.6968  160.4502 C.ar    1  UNL1        0.0176
      7 C         144.0682  141.6151  159.4141 C.ar    1  UNL1        0.0580
      8 CL        144.3186  141.9388  157.9709 Cl      1  UNL1       -0.0822
      9 C         143.7376  140.2097  159.8211 C.ar    1  UNL1        0.0145
     10 C         143.4873  139.8860  161.2641 C.ar    1  UNL1        0.0385
     11 C         143.5675  140.9677  162.3002 C.ar    1  UNL1        0.1483
     12 O         143.3171  140.6440  163.7434 O.2     1  UNL1       -0.4533
     13 C         142.6461  140.7546  169.1087 C.ar    1  UNL1        0.1387
     14 C         142.4959  139.6887  168.0640 C.ar    1  UNL1        0.0370
     15 C         142.7463  140.0124  166.6210 C.ar    1  UNL1        0.0061
     16 C         143.1469  141.4020  166.2226 C.ar    1  UNL1        0.0349
     17 C         143.2970  142.4678  167.2673 C.ar    1  UNL1        0.0061
     18 C         143.0467  142.1441  168.7103 C.ar    1  UNL1        0.0370
     19 C         141.1235  140.8756  171.2104 C.3     1  UNL1        0.2525
     20 O         142.3957  140.4309  170.5519 O.3     1  UNL1       -0.4714
@<TRIPOS>BOND
     1    19    20    1
     2    20    13    1
     3    13    14   ar
     4    14    15   ar
     5    15    16   ar
     6    16     1    1
     7     1     2   ar
     8     2     3   ar
     9     3     4    2
    10     3     5   ar
    11     5     6   ar
    12     6     7   ar
    13     7     8    1
    14     7     9   ar
    15     9    10   ar
    16    10    11   ar
    17    11    12   ar
    18    16    17   ar
    19    17    18   ar
    20    18    13   ar
    21    12     1   ar
    22    11     5   ar
@<TRIPOS>MOLECULE
*****
 20 22 0 0 0
SMALL
GASTEIGER

@<TRIPOS>ATOM
      1 C         140.0686  139.7921  164.9273 C.ar    1  UNL1        0.1484
      2 C         139.0662  139.2989  165.9283 C.ar    1  UNL1        0.0796
      3 C         139.2198  139.6494  167.3786 C.ar    1  UNL1        0.2017
      4 O         138.2174  139.1561  168.3796 O.2     1  UNL1       -0.2864
      5 C         140.3757  140.4931  167.8281 C.ar    1  UNL1        0.0744
      6 C         140.5292  140.8436  169.2784 C.ar    1  UNL1        0.0176
      7 C         141.6851  141.6874  169.7278 C.ar    1  UNL1        0.0580
      8 CL        141.8387  142.0379  171.1782 Cl      1  UNL1       -0.0822
      9 C         142.6875  142.1806  168.7268 C.ar    1  UNL1        0.0145
     10 C         142.5340  141.8301  167.2764 C.ar    1  UNL1        0.0385
     11 C         141.3781  140.9864  166.8271 C.ar    1  UNL1        0.1483
     12 O         141.2245  140.6359  165.3767 O.2     1  UNL1       -0.4533
     13 C         139.6080  138.7406  160.5762 C.ar    1  UNL1        0.1387
     14 C         140.6660  139.7137  161.0047 C.ar    1  UNL1        0.0370
     15 C         140.8195  140.0642  162.4550 C.ar    1  UNL1        0.0061
     16 C         139.9150  139.4416  163.4769 C.ar    1  UNL1        0.0349
     17 C         138.8570  138.4685  163.0484 C.ar    1  UNL1        0.0061
     18 C         138.7035  138.1180  161.5981 C.ar    1  UNL1        0.0370
     19 C         140.6459  138.4260  158.2153 C.3     1  UNL1        0.2525
     20 O         139.4544  138.3901  159.1258 O.3     1  UNL1       -0.4714
@<TRIPOS>BOND
     1    19    20    1
     2    20    13    1
     3    13    14   ar
     4    14    15   ar
     5    15    16   ar
     6    16     1    1
     7     1     2   ar
     8     2     3   ar
     9     3     4    2
    10     3     5   ar
    11     5     6   ar
    12     6     7   ar
    13     7     8    1
    14     7     9   ar
    15     9    10   ar
    16    10    11   ar
    17    11    12   ar
    18    16    17   ar
    19    17    18   ar
    20    18    13   ar
    21    12     1   ar
    22    11     5   ar
