@<TRIPOS>MOLECULE
*****
 32 34 0 0 0
SMALL
GASTEIGER

@<TRIPOS>ATOM
      1 C         140.4394  139.8789  167.0136 C.ar    1  UNL1        0.0730
      2 C         140.2411  139.1190  165.7356 C.ar    1  UNL1        0.0322
      3 C         138.9793  138.3382  165.5154 C.ar    1  UNL1        0.0653
      4 C         137.9160  138.3173  166.5731 C.ar    1  UNL1        0.1133
      5 N         138.1144  139.0772  167.8511 N.ar    1  UNL1       -0.2367
      6 C         139.3760  139.8579  168.0714 C.ar    1  UNL1        0.1476
      7 C         139.5743  140.6178  169.3494 C.2     1  UNL1        0.2617
      8 N         139.3055  139.9528  170.6668 N.am    1  UNL1       -0.3240
      9 O         140.0416  142.0427  169.3100 O.2     1  UNL1       -0.2687
     10 H         138.9989  139.0176  170.6926 H       1  UNL1        0.1453
     11 H         139.4357  140.4515  171.5055 H       1  UNL1        0.1453
     12 N         141.7011  140.6596  167.2339 N.pl3   1  UNL1       -0.2966
     13 H         142.1777  140.5928  168.0927 H       1  UNL1        0.1537
     14 C         141.1303  144.7234  164.0463 C.3     1  UNL1        0.0312
     15 C         141.9511  143.5742  164.5519 C.ar    1  UNL1       -0.0179
     16 C         143.3074  143.3076  163.9692 C.ar    1  UNL1        0.0106
     17 C         144.1282  142.1584  164.4748 C.ar    1  UNL1        0.0605
     18 C         145.4845  141.8919  163.8920 C.3     1  UNL1        0.0521
     19 N         143.5928  141.2757  165.5630 N.ar    1  UNL1       -0.2349
     20 C         142.2366  141.5423  166.1456 C.ar    1  UNL1        0.1315
     21 C         141.4157  142.6915  165.6401 C.ar    1  UNL1        0.0301
     22 N         138.7810  137.5784  164.2374 N.pl3   1  UNL1       -0.3316
     23 H         138.4869  136.6392  164.2636 H       1  UNL1        0.1468
     24 C         139.0308  138.2495  162.9193 C.3     1  UNL1        0.0833
     25 C         138.0296  139.2230  162.3718 C.3     1  UNL1        0.0208
     26 C         138.2794  139.8942  161.0537 C.3     1  UNL1        0.0018
     27 C         139.5303  139.5918  160.2832 C.3     1  UNL1        0.0015
     28 C         140.5315  138.6182  160.8308 C.3     1  UNL1        0.0172
     29 C         140.2817  137.9471  162.1488 C.3     1  UNL1        0.0689
     30 N         141.2830  136.9735  162.6964 N.3     1  UNL1       -0.3209
     31 H         140.9544  136.6164  163.5936 H       1  UNL1        0.1189
     32 H         142.1790  137.4436  162.8252 H       1  UNL1        0.1189
@<TRIPOS>BOND
     1    14    15    1
     2    15    16   ar
     3    16    17   ar
     4    17    18    1
     5    17    19   ar
     6    19    20   ar
     7    20    12    1
     8    12     1    1
     9     1     2   ar
    10     2     3   ar
    11     3    22    1
    12    24    22    1
    13    24    25    1
    14    25    26    1
    15    26    27    1
    16    27    28    1
    17    28    29    1
    18    29    30    1
    19     3     4   ar
    20     4     5   ar
    21     5     6   ar
    22     6     7    1
    23     7     8   am
    24     7     9    2
    25    20    21   ar
    26    21    15   ar
    27     6     1   ar
    28    29    24    1
    29    12    13    1
    30    22    23    1
    31    30    31    1
    32    30    32    1
    33     8    10    1
    34     8    11    1
@<TRIPOS>MOLECULE
*****
 32 34 0 0 0
SMALL
GASTEIGER

@<TRIPOS>ATOM
      1 C         139.9597  140.1387  165.0650 C.ar    1  UNL1        0.0730
      2 C         140.3904  140.2493  166.4976 C.ar    1  UNL1        0.0322
      3 C         139.5042  139.7272  167.5895 C.ar    1  UNL1        0.0653
      4 C         138.1876  139.0946  167.2489 C.ar    1  UNL1        0.1133
      5 N         137.7570  138.9839  165.8163 N.ar    1  UNL1       -0.2367
      6 C         138.6430  139.5059  164.7244 C.ar    1  UNL1        0.1476
      7 C         138.2123  139.3953  163.2918 C.2     1  UNL1        0.2617
      8 N         137.4971  140.5375  162.6333 N.am    1  UNL1       -0.3240
      9 O         138.4970  138.1423  162.5177 O.2     1  UNL1       -0.2687
     10 H         137.3103  141.3598  163.1413 H       1  UNL1        0.1453
     11 H         137.2145  140.4649  161.6930 H       1  UNL1        0.1453
     12 N         140.8457  140.6607  163.9730 N.pl3   1  UNL1       -0.2966
     13 H         141.3420  140.0330  163.3994 H       1  UNL1        0.1537
     14 C         143.7202  144.9883  164.0715 C.3     1  UNL1        0.0312
     15 C         142.4130  144.3029  163.8043 C.ar    1  UNL1       -0.0179
     16 C         141.2358  145.0958  163.3190 C.ar    1  UNL1        0.0106
     17 C         139.9286  144.4104  163.0518 C.ar    1  UNL1        0.0605
     18 C         138.7514  145.2034  162.5665 C.3     1  UNL1        0.0521
     19 N         139.7986  142.9320  163.2698 N.ar    1  UNL1       -0.2349
     20 C         140.9758  142.1391  163.7550 C.ar    1  UNL1        0.1315
     21 C         142.2830  142.8245  164.0223 C.ar    1  UNL1        0.0301
     22 N         139.9349  139.8379  169.0221 N.pl3   1  UNL1       -0.3316
     23 H         139.5491  139.2370  169.6999 H       1  UNL1        0.1468
     24 C         140.9533  140.8641  169.4220 C.3     1  UNL1        0.0833
     25 C         140.5319  142.2823  169.6692 C.3     1  UNL1        0.0208
     26 C         141.5504  143.3084  170.0691 C.3     1  UNL1        0.0018
     27 C         142.9901  142.9163  170.2218 C.3     1  UNL1        0.0015
     28 C         143.4115  141.4981  169.9746 C.3     1  UNL1        0.0172
     29 C         142.3931  140.4720  169.5747 C.3     1  UNL1        0.0689
     30 N         142.8144  139.0537  169.3275 N.3     1  UNL1       -0.3209
     31 H         142.0000  138.4976  169.0669 H       1  UNL1        0.1189
     32 H         143.2309  138.6699  170.1758 H       1  UNL1        0.1189
@<TRIPOS>BOND
     1    14    15    1
     2    15    16   ar
     3    16    17   ar
     4    17    18    1
     5    17    19   ar
     6    19    20   ar
     7    20    12    1
     8    12     1    1
     9     1     2   ar
    10     2     3   ar
    11     3    22    1
    12    24    22    1
    13    24    25    1
    14    25    26    1
    15    26    27    1
    16    27    28    1
    17    28    29    1
    18    29    30    1
    19     3     4   ar
    20     4     5   ar
    21     5     6   ar
    22     6     7    1
    23     7     8   am
    24     7     9    2
    25    20    21   ar
    26    21    15   ar
    27     6     1   ar
    28    29    24    1
    29    12    13    1
    30    22    23    1
    31    30    31    1
    32    30    32    1
    33     8    10    1
    34     8    11    1
@<TRIPOS>MOLECULE
*****
 32 34 0 0 0
SMALL
GASTEIGER

@<TRIPOS>ATOM
      1 C         139.5002  140.8184  165.1838 C.ar    1  UNL1        0.0730
      2 C         140.0315  140.8168  166.5866 C.ar    1  UNL1        0.0322
      3 C         139.4203  139.9164  167.6190 C.ar    1  UNL1        0.0653
      4 C         138.2779  139.0177  167.2487 C.ar    1  UNL1        0.1133
      5 N         137.7466  139.0193  165.8460 N.ar    1  UNL1       -0.2367
      6 C         138.3577  139.9196  164.8135 C.ar    1  UNL1        0.1476
      7 C         137.8264  139.9212  163.4108 C.2     1  UNL1        0.2617
      8 N         136.9409  141.0389  162.9455 N.am    1  UNL1       -0.3240
      9 O         138.1807  138.8050  162.4734 O.2     1  UNL1       -0.2687
     10 H         136.7084  141.7715  163.5607 H       1  UNL1        0.1453
     11 H         136.5922  141.0400  162.0248 H       1  UNL1        0.1453
     12 N         140.1113  141.7187  164.1514 N.pl3   1  UNL1       -0.2966
     13 H         139.5499  142.1051  163.4409 H       1  UNL1        0.1537
     14 C         143.9677  145.1921  164.4042 C.3     1  UNL1        0.0312
     15 C         143.5060  143.7669  164.3278 C.ar    1  UNL1       -0.0179
     16 C         144.5106  142.6534  164.3014 C.ar    1  UNL1        0.0106
     17 C         144.0488  141.2283  164.2251 C.ar    1  UNL1        0.0605
     18 C         145.0535  140.1148  164.1987 C.3     1  UNL1        0.0521
     19 N         142.5824  140.9167  164.1750 N.ar    1  UNL1       -0.2349
     20 C         141.5778  142.0303  164.2014 C.ar    1  UNL1        0.1315
     21 C         142.0396  143.4554  164.2778 C.ar    1  UNL1        0.0301
     22 N         139.9516  139.9149  169.0218 N.pl3   1  UNL1       -0.3316
     23 H         139.6230  139.2526  169.6719 H       1  UNL1        0.1468
     24 C         140.9837  140.9223  169.4340 C.3     1  UNL1        0.0833
     25 C         140.5678  142.3178  169.7939 C.3     1  UNL1        0.0208
     26 C         141.5999  143.3253  170.2061 C.3     1  UNL1        0.0018
     27 C         143.0478  142.9372  170.2585 C.3     1  UNL1        0.0015
     28 C         143.4637  141.5416  169.8986 C.3     1  UNL1        0.0172
     29 C         142.4317  140.5342  169.4864 C.3     1  UNL1        0.0689
     30 N         142.8476  139.1387  169.1265 N.3     1  UNL1       -0.3209
     31 H         142.0239  138.5931  168.8730 H       1  UNL1        0.1189
     32 H         143.3099  138.7049  169.9256 H       1  UNL1        0.1189
@<TRIPOS>BOND
     1    14    15    1
     2    15    16   ar
     3    16    17   ar
     4    17    18    1
     5    17    19   ar
     6    19    20   ar
     7    20    12    1
     8    12     1    1
     9     1     2   ar
    10     2     3   ar
    11     3    22    1
    12    24    22    1
    13    24    25    1
    14    25    26    1
    15    26    27    1
    16    27    28    1
    17    28    29    1
    18    29    30    1
    19     3     4   ar
    20     4     5   ar
    21     5     6   ar
    22     6     7    1
    23     7     8   am
    24     7     9    2
    25    20    21   ar
    26    21    15   ar
    27     6     1   ar
    28    29    24    1
    29    12    13    1
    30    22    23    1
    31    30    31    1
    32    30    32    1
    33     8    10    1
    34     8    11    1
@<TRIPOS>MOLECULE
*****
 32 34 0 0 0
SMALL
GASTEIGER

@<TRIPOS>ATOM
      1 C         139.5246  140.7846  164.9843 C.ar    1  UNL1        0.0730
      2 C         140.0249  140.7805  166.3984 C.ar    1  UNL1        0.0322
      3 C         139.3956  139.8736  167.4140 C.ar    1  UNL1        0.0653
      4 C         138.2659  138.9709  167.0156 C.ar    1  UNL1        0.1133
      5 N         137.7655  138.9749  165.6015 N.ar    1  UNL1       -0.2367
      6 C         138.3948  139.8818  164.5859 C.ar    1  UNL1        0.1476
      7 C         137.8944  139.8859  163.1718 C.2     1  UNL1        0.2617
      8 N         138.0470  138.6616  162.3187 N.am    1  UNL1       -0.3240
      9 O         137.2414  141.1143  162.6109 O.2     1  UNL1       -0.2687
     10 H         138.4756  137.8554  162.6869 H       1  UNL1        0.1453
     11 H         137.7186  138.6643  161.3906 H       1  UNL1        0.1453
     12 N         140.1539  141.6914  163.9686 N.pl3   1  UNL1       -0.2966
     13 H         139.6079  142.0721  163.2432 H       1  UNL1        0.1537
     14 C         145.1099  140.1395  164.1393 C.3     1  UNL1        0.0312
     15 C         144.0931  141.2423  164.1435 C.ar    1  UNL1       -0.0179
     16 C         144.5375  142.6718  164.2373 C.ar    1  UNL1        0.0106
     17 C         143.5207  143.7746  164.2416 C.ar    1  UNL1        0.0605
     18 C         143.9652  145.2042  164.3354 C.3     1  UNL1        0.0521
     19 N         142.0595  143.4478  164.1520 N.ar    1  UNL1       -0.2349
     20 C         141.6151  142.0183  164.0582 C.ar    1  UNL1        0.1315
     21 C         142.6319  140.9155  164.0540 C.ar    1  UNL1        0.0301
     22 N         139.8959  139.8695  168.8281 N.pl3   1  UNL1       -0.3316
     23 H         139.5667  139.1947  169.4648 H       1  UNL1        0.1468
     24 C         140.8980  140.8936  169.2720 C.3     1  UNL1        0.0833
     25 C         140.4451  142.2747  169.6428 C.3     1  UNL1        0.0208
     26 C         141.4472  143.2988  170.0867 C.3     1  UNL1        0.0018
     27 C         142.9022  142.9418  170.1599 C.3     1  UNL1        0.0015
     28 C         143.3552  141.5607  169.7891 C.3     1  UNL1        0.0172
     29 C         142.3531  140.5366  169.3452 C.3     1  UNL1        0.0689
     30 N         142.8061  139.1555  168.9744 N.3     1  UNL1       -0.3209
     31 H         141.9992  138.5956  168.6990 H       1  UNL1        0.1189
     32 H         143.2637  138.7212  169.7759 H       1  UNL1        0.1189
@<TRIPOS>BOND
     1    14    15    1
     2    15    16   ar
     3    16    17   ar
     4    17    18    1
     5    17    19   ar
     6    19    20   ar
     7    20    12    1
     8    12     1    1
     9     1     2   ar
    10     2     3   ar
    11     3    22    1
    12    24    22    1
    13    24    25    1
    14    25    26    1
    15    26    27    1
    16    27    28    1
    17    28    29    1
    18    29    30    1
    19     3     4   ar
    20     4     5   ar
    21     5     6   ar
    22     6     7    1
    23     7     8   am
    24     7     9    2
    25    20    21   ar
    26    21    15   ar
    27     6     1   ar
    28    29    24    1
    29    12    13    1
    30    22    23    1
    31    30    31    1
    32    30    32    1
    33     8    10    1
    34     8    11    1
@<TRIPOS>MOLECULE
*****
 32 34 0 0 0
SMALL
GASTEIGER

@<TRIPOS>ATOM
      1 C         141.7547  140.5295  167.2134 C.ar    1  UNL1        0.0730
      2 C         140.6582  140.5961  166.1920 C.ar    1  UNL1        0.0322
      3 C         139.2571  140.2163  166.5698 C.ar    1  UNL1        0.0653
      4 C         138.9525  139.7698  167.9691 C.ar    1  UNL1        0.1133
      5 N         140.0490  139.7032  168.9905 N.ar    1  UNL1       -0.2367
      6 C         141.4501  140.0831  168.6127 C.ar    1  UNL1        0.1476
      7 C         142.5465  140.0164  169.6341 C.2     1  UNL1        0.2617
      8 N         142.8175  138.7326  170.3609 N.am    1  UNL1       -0.3240
      9 O         143.3720  141.2338  169.9288 O.2     1  UNL1       -0.2687
     10 H         142.2758  137.9336  170.1675 H       1  UNL1        0.1453
     11 H         143.5372  138.6889  171.0312 H       1  UNL1        0.1453
     12 N         143.1557  140.9094  166.8356 N.pl3   1  UNL1       -0.2966
     13 H         143.8949  140.7549  167.4672 H       1  UNL1        0.1537
     14 C         144.4613  140.3987  161.8321 C.3     1  UNL1        0.0312
     15 C         144.0833  141.2692  162.9937 C.ar    1  UNL1       -0.0179
     16 C         143.9801  142.7549  162.8151 C.ar    1  UNL1        0.0106
     17 C         143.6021  143.6255  163.9767 C.ar    1  UNL1        0.0605
     18 C         143.4989  145.1113  163.7981 C.3     1  UNL1        0.0521
     19 N         143.3273  143.0103  165.3168 N.ar    1  UNL1       -0.2349
     20 C         143.4305  141.5246  165.4954 C.ar    1  UNL1        0.1315
     21 C         143.8085  140.6541  164.3338 C.ar    1  UNL1        0.0301
     22 N         138.1606  140.2829  165.5484 N.pl3   1  UNL1       -0.3316
     23 H         137.3385  140.7890  165.7411 H       1  UNL1        0.1468
     24 C         138.3168  139.5783  164.2334 C.3     1  UNL1        0.0833
     25 C         139.1084  138.3067  164.1532 C.3     1  UNL1        0.0208
     26 C         139.2646  137.6021  162.8382 C.3     1  UNL1        0.0018
     27 C         138.6292  138.1692  161.6034 C.3     1  UNL1        0.0015
     28 C         137.8376  139.4408  161.6836 C.3     1  UNL1        0.0172
     29 C         137.6814  140.1453  162.9986 C.3     1  UNL1        0.0689
     30 N         136.8898  141.4169  163.0788 N.3     1  UNL1       -0.3209
     31 H         136.8877  141.7561  164.0408 H       1  UNL1        0.1189
     32 H         135.9311  141.2402  162.7786 H       1  UNL1        0.1189
@<TRIPOS>BOND
     1    14    15    1
     2    15    16   ar
     3    16    17   ar
     4    17    18    1
     5    17    19   ar
     6    19    20   ar
     7    20    12    1
     8    12     1    1
     9     1     2   ar
    10     2     3   ar
    11     3    22    1
    12    24    22    1
    13    24    25    1
    14    25    26    1
    15    26    27    1
    16    27    28    1
    17    28    29    1
    18    29    30    1
    19     3     4   ar
    20     4     5   ar
    21     5     6   ar
    22     6     7    1
    23     7     8   am
    24     7     9    2
    25    20    21   ar
    26    21    15   ar
    27     6     1   ar
    28    29    24    1
    29    12    13    1
    30    22    23    1
    31    30    31    1
    32    30    32    1
    33     8    10    1
    34     8    11    1
@<TRIPOS>MOLECULE
*****
 32 34 0 0 0
SMALL
GASTEIGER

@<TRIPOS>ATOM
      1 C         141.2270  140.4466  168.5843 C.ar    1  UNL1        0.0730
      2 C         140.3073  139.9919  167.4899 C.ar    1  UNL1        0.0322
      3 C         138.8931  139.6076  167.8100 C.ar    1  UNL1        0.0653
      4 C         138.3986  139.6779  169.2244 C.ar    1  UNL1        0.1133
      5 N         139.3183  140.1325  170.3187 N.ar    1  UNL1       -0.2367
      6 C         140.7324  140.5168  169.9987 C.ar    1  UNL1        0.1476
      7 C         141.6521  140.9715  171.0930 C.2     1  UNL1        0.2617
      8 N         142.8457  140.1417  171.4627 N.am    1  UNL1       -0.3240
      9 O         141.3781  142.2560  171.8177 O.2     1  UNL1       -0.2687
     10 H         143.0255  139.2986  170.9871 H       1  UNL1        0.1453
     11 H         143.4492  140.4401  172.1810 H       1  UNL1        0.1453
     12 N         142.6411  140.8309  168.2642 N.pl3   1  UNL1       -0.2966
     13 H         143.3039  140.9154  168.9873 H       1  UNL1        0.1537
     14 C         143.9697  144.1465  164.4904 C.3     1  UNL1        0.0312
     15 C         143.7097  142.7443  164.9556 C.ar    1  UNL1       -0.0179
     16 C         143.8540  141.5979  163.9992 C.ar    1  UNL1        0.0106
     17 C         143.5940  140.1957  164.4644 C.ar    1  UNL1        0.0605
     18 C         143.7384  139.0493  163.5079 C.3     1  UNL1        0.0521
     19 N         143.1897  139.9401  165.8861 N.ar    1  UNL1       -0.2349
     20 C         143.0454  141.0865  166.8425 C.ar    1  UNL1        0.1315
     21 C         143.3054  142.4887  166.3772 C.ar    1  UNL1        0.0301
     22 N         137.9735  139.1530  166.7157 N.pl3   1  UNL1       -0.3316
     23 H         137.0236  138.9823  166.9101 H       1  UNL1        0.1468
     24 C         138.5011  138.9584  165.3251 C.3     1  UNL1        0.0833
     25 C         139.2011  137.6829  164.9601 C.3     1  UNL1        0.0208
     26 C         139.7288  137.4884  163.5695 C.3     1  UNL1        0.0018
     27 C         139.5564  138.5693  162.5439 C.3     1  UNL1        0.0015
     28 C         138.8564  139.8448  162.9089 C.3     1  UNL1        0.0172
     29 C         138.3288  140.0393  164.2995 C.3     1  UNL1        0.0689
     30 N         137.6288  141.3148  164.6645 N.3     1  UNL1       -0.3209
     31 H         137.3387  141.2758  165.6416 H       1  UNL1        0.1189
     32 H         136.8082  141.4343  164.0706 H       1  UNL1        0.1189
@<TRIPOS>BOND
     1    14    15    1
     2    15    16   ar
     3    16    17   ar
     4    17    18    1
     5    17    19   ar
     6    19    20   ar
     7    20    12    1
     8    12     1    1
     9     1     2   ar
    10     2     3   ar
    11     3    22    1
    12    24    22    1
    13    24    25    1
    14    25    26    1
    15    26    27    1
    16    27    28    1
    17    28    29    1
    18    29    30    1
    19     3     4   ar
    20     4     5   ar
    21     5     6   ar
    22     6     7    1
    23     7     8   am
    24     7     9    2
    25    20    21   ar
    26    21    15   ar
    27     6     1   ar
    28    29    24    1
    29    12    13    1
    30    22    23    1
    31    30    31    1
    32    30    32    1
    33     8    10    1
    34     8    11    1
@<TRIPOS>MOLECULE
*****
 32 34 0 0 0
SMALL
GASTEIGER

@<TRIPOS>ATOM
      1 C         140.2017  140.7200  167.0557 C.ar    1  UNL1        0.0730
      2 C         139.8100  140.3104  165.6669 C.ar    1  UNL1        0.0322
      3 C         138.7012  139.3211  165.4613 C.ar    1  UNL1        0.0653
      4 C         137.9843  138.7416  166.6445 C.ar    1  UNL1        0.1133
      5 N         138.3760  139.1512  168.0333 N.ar    1  UNL1       -0.2367
      6 C         139.4847  140.1403  168.2389 C.ar    1  UNL1        0.1476
      7 C         139.8764  140.5499  169.6277 C.2     1  UNL1        0.2617
      8 N         140.2358  139.5069  170.6440 N.am    1  UNL1       -0.3240
      9 O         139.9087  142.0026  170.0002 O.2     1  UNL1       -0.2687
     10 H         140.2146  138.5535  170.3996 H       1  UNL1        0.1453
     11 H         140.4929  139.7758  171.5555 H       1  UNL1        0.1453
     12 N         141.3104  141.7091  167.2613 N.pl3   1  UNL1       -0.2966
     13 H         141.4629  142.0995  168.1521 H       1  UNL1        0.1537
     14 C         145.3053  140.7011  164.0951 C.3     1  UNL1        0.0312
     15 C         144.1842  141.5995  164.5265 C.ar    1  UNL1       -0.0179
     16 C         143.9396  142.8923  163.8063 C.ar    1  UNL1        0.0106
     17 C         142.8186  143.7907  164.2377 C.ar    1  UNL1        0.0605
     18 C         142.5739  145.0835  163.5173 C.3     1  UNL1        0.0521
     19 N         141.9422  143.3963  165.3893 N.ar    1  UNL1       -0.2349
     20 C         142.1868  142.1036  166.1096 C.ar    1  UNL1        0.1315
     21 C         143.3078  141.2051  165.6782 C.ar    1  UNL1        0.0301
     22 N         138.3095  138.9115  164.0725 N.pl3   1  UNL1       -0.3316
     23 H         137.7373  138.1223  163.9350 H       1  UNL1        0.1468
     24 C         138.7896  139.7045  162.8932 C.3     1  UNL1        0.0833
     25 C         140.0495  139.3054  162.1838 C.3     1  UNL1        0.0208
     26 C         140.5296  140.0984  161.0044 C.3     1  UNL1        0.0018
     27 C         139.7497  141.2905  160.5346 C.3     1  UNL1        0.0015
     28 C         138.4897  141.6895  161.2441 C.3     1  UNL1        0.0172
     29 C         138.0097  140.8966  162.4233 C.3     1  UNL1        0.0689
     30 N         136.7497  141.2956  163.1328 N.3     1  UNL1       -0.3209
     31 H         136.5751  140.6513  163.9040 H       1  UNL1        0.1189
     32 H         135.9670  141.2640  162.4795 H       1  UNL1        0.1189
@<TRIPOS>BOND
     1    14    15    1
     2    15    16   ar
     3    16    17   ar
     4    17    18    1
     5    17    19   ar
     6    19    20   ar
     7    20    12    1
     8    12     1    1
     9     1     2   ar
    10     2     3   ar
    11     3    22    1
    12    24    22    1
    13    24    25    1
    14    25    26    1
    15    26    27    1
    16    27    28    1
    17    28    29    1
    18    29    30    1
    19     3     4   ar
    20     4     5   ar
    21     5     6   ar
    22     6     7    1
    23     7     8   am
    24     7     9    2
    25    20    21   ar
    26    21    15   ar
    27     6     1   ar
    28    29    24    1
    29    12    13    1
    30    22    23    1
    31    30    31    1
    32    30    32    1
    33     8    10    1
    34     8    11    1
@<TRIPOS>MOLECULE
*****
 32 34 0 0 0
SMALL
GASTEIGER

@<TRIPOS>ATOM
      1 C         141.7307  139.6772  166.9409 C.ar    1  UNL1        0.0730
      2 C         140.6287  139.6866  165.9232 C.ar    1  UNL1        0.0322
      3 C         139.1972  139.7400  166.3684 C.ar    1  UNL1        0.0653
      4 C         138.8678  139.7841  167.8310 C.ar    1  UNL1        0.1133
      5 N         139.9697  139.7748  168.8487 N.ar    1  UNL1       -0.2367
      6 C         141.4012  139.7213  168.4036 C.ar    1  UNL1        0.1476
      7 C         142.5031  139.7120  169.4212 C.2     1  UNL1        0.2617
      8 N         142.7112  138.5073  170.2904 N.am    1  UNL1       -0.3240
      9 O         143.3971  140.9074  169.5697 O.2     1  UNL1       -0.2687
     10 H         142.1245  137.7228  170.1930 H       1  UNL1        0.1453
     11 H         143.4344  138.5012  170.9583 H       1  UNL1        0.1453
     12 N         143.1621  139.6238  166.4958 N.pl3   1  UNL1       -0.2966
     13 H         143.8704  139.3993  167.1417 H       1  UNL1        0.1537
     14 C         144.5905  142.9911  162.8051 C.3     1  UNL1        0.0312
     15 C         144.2287  141.5962  163.2213 C.ar    1  UNL1       -0.0179
     16 C         144.2192  140.4899  162.2084 C.ar    1  UNL1        0.0106
     17 C         143.8574  139.0950  162.6245 C.ar    1  UNL1        0.0605
     18 C         143.8479  137.9887  161.6115 C.3     1  UNL1        0.0521
     19 N         143.5050  138.8063  164.0537 N.ar    1  UNL1       -0.2349
     20 C         143.5145  139.9125  165.0666 C.ar    1  UNL1        0.1315
     21 C         143.8763  141.3074  164.6504 C.ar    1  UNL1        0.0301
     22 N         138.0952  139.7494  165.3507 N.pl3   1  UNL1       -0.3316
     23 H         137.4061  139.0464  165.3649 H       1  UNL1        0.1468
     24 C         138.0433  140.8298  164.3114 C.3     1  UNL1        0.0833
     25 C         138.0276  142.2708  164.7277 C.3     1  UNL1        0.0208
     26 C         137.9756  143.3512  163.6884 C.3     1  UNL1        0.0018
     27 C         137.9393  142.9905  162.2328 C.3     1  UNL1        0.0015
     28 C         137.9550  141.5495  161.8166 C.3     1  UNL1        0.0172
     29 C         138.0070  140.4692  162.8559 C.3     1  UNL1        0.0689
     30 N         138.0227  139.0281  162.4396 N.3     1  UNL1       -0.3209
     31 H         138.0590  138.4351  163.2687 H       1  UNL1        0.1189
     32 H         138.8423  138.8509  161.8588 H       1  UNL1        0.1189
@<TRIPOS>BOND
     1    14    15    1
     2    15    16   ar
     3    16    17   ar
     4    17    18    1
     5    17    19   ar
     6    19    20   ar
     7    20    12    1
     8    12     1    1
     9     1     2   ar
    10     2     3   ar
    11     3    22    1
    12    24    22    1
    13    24    25    1
    14    25    26    1
    15    26    27    1
    16    27    28    1
    17    28    29    1
    18    29    30    1
    19     3     4   ar
    20     4     5   ar
    21     5     6   ar
    22     6     7    1
    23     7     8   am
    24     7     9    2
    25    20    21   ar
    26    21    15   ar
    27     6     1   ar
    28    29    24    1
    29    12    13    1
    30    22    23    1
    31    30    31    1
    32    30    32    1
    33     8    10    1
    34     8    11    1
@<TRIPOS>MOLECULE
*****
 32 34 0 0 0
SMALL
GASTEIGER

@<TRIPOS>ATOM
      1 C         141.0514  141.9825  167.2996 C.ar    1  UNL1        0.0730
      2 C         141.9224  141.2081  166.3551 C.ar    1  UNL1        0.0322
      3 C         142.6202  139.9664  166.8256 C.ar    1  UNL1        0.0653
      4 C         142.4470  139.4990  168.2403 C.ar    1  UNL1        0.1133
      5 N         141.5761  140.2733  169.1847 N.ar    1  UNL1       -0.2367
      6 C         140.8783  141.5150  168.7144 C.ar    1  UNL1        0.1476
      7 C         140.0073  142.2893  169.6588 C.2     1  UNL1        0.2617
      8 N         139.0661  141.5656  170.5753 N.am    1  UNL1       -0.3240
      9 O         140.0777  143.7875  169.6866 O.2     1  UNL1       -0.2687
     10 H         139.0199  140.5823  170.5571 H       1  UNL1        0.1453
     11 H         138.4945  142.0738  171.1952 H       1  UNL1        0.1453
     12 N         140.3537  143.2241  166.8292 N.pl3   1  UNL1       -0.2966
     13 H         140.2965  144.0102  167.4193 H       1  UNL1        0.1537
     14 C         139.6266  145.6706  162.3030 C.3     1  UNL1        0.0312
     15 C         139.3794  144.4915  163.1968 C.ar    1  UNL1       -0.0179
     16 C         138.5216  143.3567  162.7212 C.ar    1  UNL1        0.0106
     17 C         138.2744  142.1776  163.6149 C.ar    1  UNL1        0.0605
     18 C         137.4166  141.0427  163.1393 C.3     1  UNL1        0.0521
     19 N         138.8851  142.1334  164.9843 N.ar    1  UNL1       -0.2349
     20 C         139.7429  143.2683  165.4598 C.ar    1  UNL1        0.1315
     21 C         139.9901  144.4473  164.5661 C.ar    1  UNL1        0.0301
     22 N         143.4911  139.1921  165.8811 N.pl3   1  UNL1       -0.3316
     23 H         144.4367  139.0314  166.1031 H       1  UNL1        0.1468
     24 C         142.9213  138.6626  164.5985 C.3     1  UNL1        0.0833
     25 C         141.6390  137.8844  164.6123 C.3     1  UNL1        0.0208
     26 C         141.0692  137.3549  163.3297 C.3     1  UNL1        0.0018
     27 C         141.7817  137.6037  162.0334 C.3     1  UNL1        0.0015
     28 C         143.0639  138.3819  162.0196 C.3     1  UNL1        0.0172
     29 C         143.6337  138.9114  163.3022 C.3     1  UNL1        0.0689
     30 N         144.9160  139.6896  163.2885 N.3     1  UNL1       -0.3209
     31 H         145.1538  139.9699  164.2399 H       1  UNL1        0.1189
     32 H         144.8033  140.5204  162.7074 H       1  UNL1        0.1189
@<TRIPOS>BOND
     1    14    15    1
     2    15    16   ar
     3    16    17   ar
     4    17    18    1
     5    17    19   ar
     6    19    20   ar
     7    20    12    1
     8    12     1    1
     9     1     2   ar
    10     2     3   ar
    11     3    22    1
    12    24    22    1
    13    24    25    1
    14    25    26    1
    15    26    27    1
    16    27    28    1
    17    28    29    1
    18    29    30    1
    19     3     4   ar
    20     4     5   ar
    21     5     6   ar
    22     6     7    1
    23     7     8   am
    24     7     9    2
    25    20    21   ar
    26    21    15   ar
    27     6     1   ar
    28    29    24    1
    29    12    13    1
    30    22    23    1
    31    30    31    1
    32    30    32    1
    33     8    10    1
    34     8    11    1
