@<TRIPOS>MOLECULE
*****
 30 34 0 0 0
SMALL
GASTEIGER

@<TRIPOS>ATOM
      1 C         139.9173  141.0916  167.0924 C.ar    1  UNL1        0.0004
      2 C         139.0332  139.9138  166.8076 C.ar    1  UNL1        0.0031
      3 C         138.3457  139.7958  165.4797 C.ar    1  UNL1        0.0370
      4 C         138.5422  140.8556  164.4366 C.ar    1  UNL1        0.1415
      5 C         139.4262  142.0334  164.7213 C.ar    1  UNL1        0.0699
      6 C         140.1138  142.1514  166.0492 C.ar    1  UNL1        0.0061
      7 C         139.7558  143.1929  163.8287 C.ar    1  UNL1        0.1718
      8 N         140.6617  144.3173  164.2349 N.ar    1  UNL1       -0.1258
      9 N         140.7485  145.2802  163.0880 N.ar    1  UNL1       -0.0913
     10 C         139.8962  144.7509  161.9730 C.ar    1  UNL1        0.3249
     11 N         139.2826  143.4609  162.4307 N.ar    1  UNL1       -0.2613
     12 C         138.3631  142.6356  161.5801 C.3     1  UNL1        0.1592
     13 C         137.6896  141.3385  161.9175 C.3     1  UNL1        0.2299
     14 O         137.7693  140.5463  163.1888 O.3     1  UNL1       -0.4733
     15 C         144.0481  142.5023  169.9114 C.3     1  UNL1        0.0521
     16 C         142.6703  141.9150  169.8298 C.ar    1  UNL1        0.0594
     17 C         141.9827  141.7969  168.5019 C.ar    1  UNL1        0.0147
     18 C         140.6049  141.2097  168.4203 C.ar    1  UNL1        0.0027
     19 C         139.9146  140.7404  169.6666 C.ar    1  UNL1        0.0207
     20 C         140.6021  140.8585  170.9945 C.ar    1  UNL1        0.0984
     21 N         141.9800  141.4458  171.0761 N.ar    1  UNL1       -0.2481
     22 O         139.6931  145.3981  160.6351 O.3     1  UNL1       -0.4201
     23 C         140.6041  145.0602  159.4923 C.ar    1  UNL1        0.1767
     24 C         141.6566  144.0045  159.6592 C.ar    1  UNL1        0.0400
     25 C         142.5676  143.6666  158.5163 C.ar    1  UNL1        0.0041
     26 C         142.4260  144.3844  157.2069 C.ar    1  UNL1        0.0139
     27 C         141.3735  145.4400  157.0401 C.ar    1  UNL1        0.0881
     28 CL        141.2319  146.1577  155.7306 Cl      1  UNL1       -0.0798
     29 C         140.4625  145.7779  158.1829 C.ar    1  UNL1        0.1849
     30 F         139.4100  146.8336  158.0161 F       1  UNL1       -0.2000
@<TRIPOS>BOND
     1    15    16    1
     2    16    17   ar
     3    17    18   ar
     4    18     1    1
     5     1     2   ar
     6     2     3   ar
     7     3     4   ar
     8     4     5   ar
     9     5     6   ar
    10     5     7    1
    11     7     8   ar
    12     8     9   ar
    13     9    10   ar
    14    10    22    1
    15    22    23    1
    16    23    24   ar
    17    24    25   ar
    18    25    26   ar
    19    26    27   ar
    20    27    28    1
    21    27    29   ar
    22    29    30    1
    23    10    11   ar
    24    11    12    1
    25    12    13    1
    26    13    14    1
    27    18    19   ar
    28    19    20   ar
    29    20    21   ar
    30    21    16   ar
    31     6     1   ar
    32    11     7   ar
    33    14     4    1
    34    29    23   ar
@<TRIPOS>MOLECULE
*****
 30 34 0 0 0
SMALL
GASTEIGER

@<TRIPOS>ATOM
      1 C         139.8792  140.0498  167.5891 C.ar    1  UNL1        0.0004
      2 C         138.5277  139.4465  167.3459 C.ar    1  UNL1        0.0031
      3 C         138.2463  138.7318  166.0575 C.ar    1  UNL1        0.0370
      4 C         139.3164  138.6205  165.0123 C.ar    1  UNL1        0.1415
      5 C         140.6679  139.2239  165.2555 C.ar    1  UNL1        0.0699
      6 C         140.9494  139.9385  166.5439 C.ar    1  UNL1        0.0061
      7 C         141.8666  139.2273  164.3539 C.ar    1  UNL1        0.1718
      8 N         143.1720  139.8709  164.7168 N.ar    1  UNL1       -0.1258
      9 N         144.1219  139.6696  163.5735 N.ar    1  UNL1       -0.0913
     10 C         143.4036  138.9014  162.5040 C.ar    1  UNL1        0.3249
     11 N         142.0098  138.6280  162.9862 N.ar    1  UNL1       -0.2613
     12 C         140.9897  137.8775  162.1825 C.3     1  UNL1        0.1592
     13 C         139.5744  137.5407  162.5479 C.3     1  UNL1        0.2299
     14 O         138.8297  137.8714  163.8073 O.3     1  UNL1       -0.4733
     15 C         140.3536  144.4761  170.2693 C.3     1  UNL1        0.0521
     16 C         140.3979  142.9777  170.2176 C.ar    1  UNL1        0.0594
     17 C         140.1164  142.2630  168.9292 C.ar    1  UNL1        0.0147
     18 C         140.1607  140.7646  168.8776 C.ar    1  UNL1        0.0027
     19 C         140.4864  139.9808  170.1143 C.ar    1  UNL1        0.0207
     20 C         140.7679  140.6954  171.4027 C.ar    1  UNL1        0.0984
     21 N         140.7237  142.1939  171.4544 N.ar    1  UNL1       -0.2481
     22 O         143.9784  138.4806  161.1838 O.3     1  UNL1       -0.4201
     23 C         143.5636  139.1852  159.9263 C.ar    1  UNL1        0.1767
     24 C         142.8577  138.4284  158.8405 C.ar    1  UNL1        0.0400
     25 C         142.4429  139.1331  157.5830 C.ar    1  UNL1        0.0041
     26 C         142.7341  140.5945  157.4113 C.ar    1  UNL1        0.0139
     27 C         143.4400  141.3513  158.4970 C.ar    1  UNL1        0.0881
     28 CL        143.7312  142.8127  158.3254 Cl      1  UNL1       -0.0798
     29 C         143.8548  140.6466  159.7546 C.ar    1  UNL1        0.1849
     30 F         144.5607  141.4034  160.8404 F       1  UNL1       -0.2000
@<TRIPOS>BOND
     1    15    16    1
     2    16    17   ar
     3    17    18   ar
     4    18     1    1
     5     1     2   ar
     6     2     3   ar
     7     3     4   ar
     8     4     5   ar
     9     5     6   ar
    10     5     7    1
    11     7     8   ar
    12     8     9   ar
    13     9    10   ar
    14    10    22    1
    15    22    23    1
    16    23    24   ar
    17    24    25   ar
    18    25    26   ar
    19    26    27   ar
    20    27    28    1
    21    27    29   ar
    22    29    30    1
    23    10    11   ar
    24    11    12    1
    25    12    13    1
    26    13    14    1
    27    18    19   ar
    28    19    20   ar
    29    20    21   ar
    30    21    16   ar
    31     6     1   ar
    32    11     7   ar
    33    14     4    1
    34    29    23   ar
@<TRIPOS>MOLECULE
*****
 30 34 0 0 0
SMALL
GASTEIGER

@<TRIPOS>ATOM
      1 C         139.9106  140.0487  167.5724 C.ar    1  UNL1        0.0004
      2 C         138.5723  139.4176  167.3262 C.ar    1  UNL1        0.0031
      3 C         138.3060  138.7039  166.0341 C.ar    1  UNL1        0.0370
      4 C         139.3780  138.6214  164.9881 C.ar    1  UNL1        0.1415
      5 C         140.7163  139.2525  165.2343 C.ar    1  UNL1        0.0699
      6 C         140.9826  139.9662  166.5265 C.ar    1  UNL1        0.0061
      7 C         141.9144  139.2866  164.3325 C.ar    1  UNL1        0.1718
      8 N         143.2056  139.9564  164.6987 N.ar    1  UNL1       -0.1258
      9 N         144.1594  139.7818  163.5542 N.ar    1  UNL1       -0.0913
     10 C         143.4576  139.0040  162.4806 C.ar    1  UNL1        0.3249
     11 N         142.0701  138.6980  162.9616 N.ar    1  UNL1       -0.2613
     12 C         141.0662  137.9299  162.1541 C.3     1  UNL1        0.1592
     13 C         139.6586  137.5606  162.5179 C.3     1  UNL1        0.2299
     14 O         138.9073  137.8684  163.7792 O.3     1  UNL1       -0.4733
     15 C         140.3535  144.4729  170.2614 C.3     1  UNL1        0.0521
     16 C         140.3984  142.9746  170.2091 C.ar    1  UNL1        0.0594
     17 C         140.1321  142.2608  168.9169 C.ar    1  UNL1        0.0147
     18 C         140.1769  140.7624  168.8647 C.ar    1  UNL1        0.0027
     19 C         140.4880  139.9777  170.1046 C.ar    1  UNL1        0.0207
     20 C         140.7543  140.6914  171.3967 C.ar    1  UNL1        0.0984
     21 N         140.7095  142.1898  171.4490 N.ar    1  UNL1       -0.2481
     22 O         144.0409  138.6027  161.1582 O.3     1  UNL1       -0.4201
     23 C         143.6068  139.3015  159.9039 C.ar    1  UNL1        0.1767
     24 C         143.7569  140.7891  159.7837 C.ar    1  UNL1        0.0400
     25 C         143.3227  141.4877  158.5293 C.ar    1  UNL1        0.0041
     26 C         142.7385  140.6988  157.3953 C.ar    1  UNL1        0.0139
     27 C         142.5884  139.2112  157.5154 C.ar    1  UNL1        0.0881
     28 CL        142.0042  138.4222  156.3813 Cl      1  UNL1       -0.0798
     29 C         143.0226  138.5125  158.7698 C.ar    1  UNL1        0.1849
     30 F         142.8725  137.0249  158.8899 F       1  UNL1       -0.2000
@<TRIPOS>BOND
     1    15    16    1
     2    16    17   ar
     3    17    18   ar
     4    18     1    1
     5     1     2   ar
     6     2     3   ar
     7     3     4   ar
     8     4     5   ar
     9     5     6   ar
    10     5     7    1
    11     7     8   ar
    12     8     9   ar
    13     9    10   ar
    14    10    22    1
    15    22    23    1
    16    23    24   ar
    17    24    25   ar
    18    25    26   ar
    19    26    27   ar
    20    27    28    1
    21    27    29   ar
    22    29    30    1
    23    10    11   ar
    24    11    12    1
    25    12    13    1
    26    13    14    1
    27    18    19   ar
    28    19    20   ar
    29    20    21   ar
    30    21    16   ar
    31     6     1   ar
    32    11     7   ar
    33    14     4    1
    34    29    23   ar
@<TRIPOS>MOLECULE
*****
 30 34 0 0 0
SMALL
GASTEIGER

@<TRIPOS>ATOM
      1 C         141.4175  140.0717  167.4986 C.ar    1  UNL1        0.0004
      2 C         142.6521  139.2354  167.3365 C.ar    1  UNL1        0.0031
      3 C         142.9267  138.5486  166.0316 C.ar    1  UNL1        0.0370
      4 C         141.9667  138.6980  164.8888 C.ar    1  UNL1        0.1415
      5 C         140.7321  139.5343  165.0509 C.ar    1  UNL1        0.0699
      6 C         140.4575  140.2211  166.3558 C.ar    1  UNL1        0.0061
      7 C         139.6529  139.8132  164.0472 C.ar    1  UNL1        0.1718
      8 N         138.4587  140.6739  164.3353 N.ar    1  UNL1       -0.1258
      9 N         137.6095  140.7173  163.0995 N.ar    1  UNL1       -0.0913
     10 C         138.2790  139.8833  162.0477 C.ar    1  UNL1        0.3249
     11 N         139.5418  139.3246  162.6333 N.ar    1  UNL1       -0.2613
     12 C         140.4825  138.4365  161.8741 C.3     1  UNL1        0.1592
     13 C         141.7665  137.8176  162.3411 C.3     1  UNL1        0.2299
     14 O         142.4271  137.9340  163.6829 O.3     1  UNL1       -0.4733
     15 C         140.3374  144.3974  170.1673 C.3     1  UNL1        0.0521
     16 C         140.6028  142.9214  170.1379 C.ar    1  UNL1        0.0594
     17 C         140.8775  142.2346  168.8329 C.ar    1  UNL1        0.0147
     18 C         141.1429  140.7585  168.8036 C.ar    1  UNL1        0.0027
     19 C         141.1337  139.9693  170.0792 C.ar    1  UNL1        0.0207
     20 C         140.8590  140.6561  171.3841 C.ar    1  UNL1        0.0984
     21 N         140.5936  142.1322  171.4135 N.ar    1  UNL1       -0.2481
     22 O         137.7741  139.6493  160.6547 O.3     1  UNL1       -0.4201
     23 C         138.5063  140.2340  159.4833 C.ar    1  UNL1        0.1767
     24 C         139.1268  139.3301  158.4596 C.ar    1  UNL1        0.0400
     25 C         139.8591  139.9148  157.2883 C.ar    1  UNL1        0.0041
     26 C         139.9708  141.4033  157.1408 C.ar    1  UNL1        0.0139
     27 C         139.3503  142.3072  158.1645 C.ar    1  UNL1        0.0881
     28 CL        139.4621  143.7957  158.0169 Cl      1  UNL1       -0.0798
     29 C         138.6181  141.7224  159.3358 C.ar    1  UNL1        0.1849
     30 F         137.9976  142.6264  160.3595 F       1  UNL1       -0.2000
@<TRIPOS>BOND
     1    15    16    1
     2    16    17   ar
     3    17    18   ar
     4    18     1    1
     5     1     2   ar
     6     2     3   ar
     7     3     4   ar
     8     4     5   ar
     9     5     6   ar
    10     5     7    1
    11     7     8   ar
    12     8     9   ar
    13     9    10   ar
    14    10    22    1
    15    22    23    1
    16    23    24   ar
    17    24    25   ar
    18    25    26   ar
    19    26    27   ar
    20    27    28    1
    21    27    29   ar
    22    29    30    1
    23    10    11   ar
    24    11    12    1
    25    12    13    1
    26    13    14    1
    27    18    19   ar
    28    19    20   ar
    29    20    21   ar
    30    21    16   ar
    31     6     1   ar
    32    11     7   ar
    33    14     4    1
    34    29    23   ar
@<TRIPOS>MOLECULE
*****
 30 34 0 0 0
SMALL
GASTEIGER

@<TRIPOS>ATOM
      1 C         142.3521  140.2461  167.0836 C.ar    1  UNL1        0.0004
      2 C         143.1412  139.0179  166.7390 C.ar    1  UNL1        0.0031
      3 C         143.7397  138.8702  165.3716 C.ar    1  UNL1        0.0370
      4 C         143.5492  139.9507  164.3487 C.ar    1  UNL1        0.1415
      5 C         142.7601  141.1789  164.6933 C.ar    1  UNL1        0.0699
      6 C         142.1615  141.3266  166.0608 C.ar    1  UNL1        0.0061
      7 C         142.4522  142.3658  163.8293 C.ar    1  UNL1        0.1718
      8 N         141.6451  143.5408  164.2962 N.ar    1  UNL1       -0.1258
      9 N         141.5516  144.5187  163.1626 N.ar    1  UNL1       -0.0913
     10 C         142.3008  143.9481  161.9952 C.ar    1  UNL1        0.3249
     11 N         142.8574  142.6175  162.4071 N.ar    1  UNL1       -0.2613
     12 C         143.6706  141.7446  161.4979 C.3     1  UNL1        0.1592
     13 C         144.2794  140.4043  161.7861 C.3     1  UNL1        0.2299
     14 O         144.2253  139.6060  163.0549 O.3     1  UNL1       -0.4733
     15 C         138.2123  140.1200  170.2215 C.3     1  UNL1        0.0521
     16 C         139.6836  140.3308  170.0200 C.ar    1  UNL1        0.0594
     17 C         140.2822  140.1831  168.6525 C.ar    1  UNL1        0.0147
     18 C         141.7536  140.3939  168.4511 C.ar    1  UNL1        0.0027
     19 C         142.6264  140.7525  169.6171 C.ar    1  UNL1        0.0207
     20 C         142.0279  140.9003  170.9845 C.ar    1  UNL1        0.0984
     21 N         140.5565  140.6894  171.1860 N.ar    1  UNL1       -0.2481
     22 O         142.4646  144.5946  160.6516 O.3     1  UNL1       -0.4201
     23 C         141.4568  144.3419  159.5697 C.ar    1  UNL1        0.1767
     24 C         140.4310  143.2605  159.7380 C.ar    1  UNL1        0.0400
     25 C         139.4232  143.0079  158.6560 C.ar    1  UNL1        0.0041
     26 C         139.4412  143.8366  157.4059 C.ar    1  UNL1        0.0139
     27 C         140.4670  144.9180  157.2376 C.ar    1  UNL1        0.0881
     28 CL        140.4850  145.7467  155.9875 Cl      1  UNL1       -0.0798
     29 C         141.4748  145.1706  158.3196 C.ar    1  UNL1        0.1849
     30 F         142.5006  146.2520  158.1513 F       1  UNL1       -0.2000
@<TRIPOS>BOND
     1    15    16    1
     2    16    17   ar
     3    17    18   ar
     4    18     1    1
     5     1     2   ar
     6     2     3   ar
     7     3     4   ar
     8     4     5   ar
     9     5     6   ar
    10     5     7    1
    11     7     8   ar
    12     8     9   ar
    13     9    10   ar
    14    10    22    1
    15    22    23    1
    16    23    24   ar
    17    24    25   ar
    18    25    26   ar
    19    26    27   ar
    20    27    28    1
    21    27    29   ar
    22    29    30    1
    23    10    11   ar
    24    11    12    1
    25    12    13    1
    26    13    14    1
    27    18    19   ar
    28    19    20   ar
    29    20    21   ar
    30    21    16   ar
    31     6     1   ar
    32    11     7   ar
    33    14     4    1
    34    29    23   ar
@<TRIPOS>MOLECULE
*****
 30 34 0 0 0
SMALL
GASTEIGER

@<TRIPOS>ATOM
      1 C         139.2462  141.9188  164.4254 C.ar    1  UNL1        0.0004
      2 C         138.0540  142.7137  163.9820 C.ar    1  UNL1        0.0031
      3 C         138.1225  143.5313  162.7263 C.ar    1  UNL1        0.0370
      4 C         139.3833  143.5539  161.9140 C.ar    1  UNL1        0.1415
      5 C         140.5756  142.7590  162.3574 C.ar    1  UNL1        0.0699
      6 C         140.5070  141.9414  163.6131 C.ar    1  UNL1        0.0061
      7 C         141.9189  142.6426  161.7004 C.ar    1  UNL1        0.1718
      8 N         143.0376  141.8074  162.2489 N.ar    1  UNL1       -0.1258
      9 N         144.2120  141.9411  161.3253 N.ar    1  UNL1       -0.0913
     10 C         143.8190  142.8589  160.2058 C.ar    1  UNL1        0.3249
     11 N         142.4019  143.2925  160.4376 N.ar    1  UNL1       -0.2613
     12 C         141.6607  144.2192  159.5201 C.3     1  UNL1        0.1592
     13 C         140.2536  144.7250  159.6386 C.3     1  UNL1        0.2299
     14 O         139.2400  144.4289  160.7041 O.3     1  UNL1       -0.4733
     15 C         137.3604  137.8485  167.0478 C.3     1  UNL1        0.0521
     16 C         138.2348  139.0660  166.9924 C.ar    1  UNL1        0.0594
     17 C         138.3033  139.8836  165.7366 C.ar    1  UNL1        0.0147
     18 C         139.1777  141.1011  165.6811 C.ar    1  UNL1        0.0027
     19 C         139.9836  141.5010  166.8814 C.ar    1  UNL1        0.0207
     20 C         139.9151  140.6835  168.1371 C.ar    1  UNL1        0.0984
     21 N         139.0407  139.4659  168.1926 N.ar    1  UNL1       -0.2481
     22 O         144.6904  143.2708  159.0564 O.3     1  UNL1       -0.4201
     23 C         144.9482  142.3142  157.9302 C.ar    1  UNL1        0.1767
     24 C         143.9206  141.2814  157.5733 C.ar    1  UNL1        0.0400
     25 C         144.1785  140.3247  156.4470 C.ar    1  UNL1        0.0041
     26 C         145.4639  140.4010  155.6778 C.ar    1  UNL1        0.0139
     27 C         146.4915  141.4337  156.0346 C.ar    1  UNL1        0.0881
     28 CL        147.7769  141.5100  155.2654 Cl      1  UNL1       -0.0798
     29 C         146.2336  142.3904  157.1609 C.ar    1  UNL1        0.1849
     30 F         147.2612  143.4231  157.5178 F       1  UNL1       -0.2000
@<TRIPOS>BOND
     1    15    16    1
     2    16    17   ar
     3    17    18   ar
     4    18     1    1
     5     1     2   ar
     6     2     3   ar
     7     3     4   ar
     8     4     5   ar
     9     5     6   ar
    10     5     7    1
    11     7     8   ar
    12     8     9   ar
    13     9    10   ar
    14    10    22    1
    15    22    23    1
    16    23    24   ar
    17    24    25   ar
    18    25    26   ar
    19    26    27   ar
    20    27    28    1
    21    27    29   ar
    22    29    30    1
    23    10    11   ar
    24    11    12    1
    25    12    13    1
    26    13    14    1
    27    18    19   ar
    28    19    20   ar
    29    20    21   ar
    30    21    16   ar
    31     6     1   ar
    32    11     7   ar
    33    14     4    1
    34    29    23   ar
@<TRIPOS>MOLECULE
*****
 30 34 0 0 0
SMALL
GASTEIGER

@<TRIPOS>ATOM
      1 C         141.5287  142.5122  166.9377 C.ar    1  UNL1        0.0004
      2 C         142.9452  142.0244  166.8652 C.ar    1  UNL1        0.0031
      3 C         143.7303  142.1866  165.5974 C.ar    1  UNL1        0.0370
      4 C         143.0988  142.8367  164.4022 C.ar    1  UNL1        0.1415
      5 C         141.6822  143.3245  164.4747 C.ar    1  UNL1        0.0699
      6 C         140.8972  143.1623  165.7425 C.ar    1  UNL1        0.0061
      7 C         140.8683  143.9954  163.4082 C.ar    1  UNL1        0.1718
      8 N         139.4495  144.4392  163.6079 N.ar    1  UNL1       -0.1258
      9 N         138.9742  145.0622  162.3288 N.ar    1  UNL1       -0.0913
     10 C         140.0994  145.0034  161.3386 C.ar    1  UNL1        0.3249
     11 N         141.2700  144.3440  162.0056 N.ar    1  UNL1       -0.2613
     12 C         142.5847  144.1080  161.3233 C.3     1  UNL1        0.1592
     13 C         143.8226  143.4649  161.8748 C.3     1  UNL1        0.2299
     14 O         144.0513  142.8992  163.2451 O.3     1  UNL1       -0.4733
     15 C         138.3851  139.6790  169.9528 C.3     1  UNL1        0.0521
     16 C         139.1717  140.9334  169.7131 C.ar    1  UNL1        0.0594
     17 C         139.9569  141.0956  168.4453 C.ar    1  UNL1        0.0147
     18 C         140.7435  142.3500  168.2056 C.ar    1  UNL1        0.0027
     19 C         140.7452  143.4423  169.2337 C.ar    1  UNL1        0.0207
     20 C         139.9601  143.2801  170.5014 C.ar    1  UNL1        0.0984
     21 N         139.1734  142.0257  170.7412 N.ar    1  UNL1       -0.2481
     22 O         140.0606  145.5142  159.9288 O.3     1  UNL1       -0.4201
     23 C         139.9255  144.5522  158.7858 C.ar    1  UNL1        0.1767
     24 C         139.8498  143.0779  159.0515 C.ar    1  UNL1        0.0400
     25 C         139.7147  142.1159  157.9084 C.ar    1  UNL1        0.0041
     26 C         139.6552  142.6283  156.5000 C.ar    1  UNL1        0.0139
     27 C         139.7308  144.1027  156.2344 C.ar    1  UNL1        0.0881
     28 CL        139.6713  144.6151  154.8259 Cl      1  UNL1       -0.0798
     29 C         139.8660  145.0646  157.3774 C.ar    1  UNL1        0.1849
     30 F         139.9416  146.5390  157.1118 F       1  UNL1       -0.2000
@<TRIPOS>BOND
     1    15    16    1
     2    16    17   ar
     3    17    18   ar
     4    18     1    1
     5     1     2   ar
     6     2     3   ar
     7     3     4   ar
     8     4     5   ar
     9     5     6   ar
    10     5     7    1
    11     7     8   ar
    12     8     9   ar
    13     9    10   ar
    14    10    22    1
    15    22    23    1
    16    23    24   ar
    17    24    25   ar
    18    25    26   ar
    19    26    27   ar
    20    27    28    1
    21    27    29   ar
    22    29    30    1
    23    10    11   ar
    24    11    12    1
    25    12    13    1
    26    13    14    1
    27    18    19   ar
    28    19    20   ar
    29    20    21   ar
    30    21    16   ar
    31     6     1   ar
    32    11     7   ar
    33    14     4    1
    34    29    23   ar
@<TRIPOS>MOLECULE
*****
 30 34 0 0 0
SMALL
GASTEIGER

@<TRIPOS>ATOM
      1 C         141.6410  139.2090  157.8799 C.ar    1  UNL1        0.0004
      2 C         140.9182  140.4007  157.3255 C.ar    1  UNL1        0.0031
      3 C         139.9084  141.1236  158.1667 C.ar    1  UNL1        0.0370
      4 C         139.6214  140.6548  159.5624 C.ar    1  UNL1        0.1415
      5 C         140.3442  139.4631  160.1169 C.ar    1  UNL1        0.0699
      6 C         141.3540  138.7402  159.2756 C.ar    1  UNL1        0.0061
      7 C         140.2096  138.8349  161.4722 C.ar    1  UNL1        0.1718
      8 N         140.9966  137.6348  161.9087 N.ar    1  UNL1       -0.1258
      9 N         140.5922  137.3014  163.3142 N.ar    1  UNL1       -0.0913
     10 C         139.5553  138.2954  163.7463 C.ar    1  UNL1        0.3249
     11 N         139.3188  139.2431  162.6080 N.ar    1  UNL1       -0.2613
     12 C         138.3427  140.3805  162.6688 C.3     1  UNL1        0.1592
     13 C         138.0163  141.3905  161.6090 C.3     1  UNL1        0.2299
     14 O         138.5854  141.5125  160.2264 O.3     1  UNL1       -0.4733
     15 C         143.7826  134.7660  156.2449 C.3     1  UNL1        0.0521
     16 C         143.7216  136.2645  156.2212 C.ar    1  UNL1        0.0594
     17 C         142.7118  136.9875  157.0624 C.ar    1  UNL1        0.0147
     18 C         142.6508  138.4860  157.0387 C.ar    1  UNL1        0.0027
     19 C         143.5996  139.2617  156.1738 C.ar    1  UNL1        0.0207
     20 C         144.6094  138.5388  155.3325 C.ar    1  UNL1        0.0984
     21 N         144.6705  137.0402  155.3562 N.ar    1  UNL1       -0.2481
     22 O         138.8745  138.3347  165.0824 O.3     1  UNL1       -0.4201
     23 C         139.4883  139.1035  166.2147 C.ar    1  UNL1        0.1767
     24 C         140.8734  139.6627  166.0777 C.ar    1  UNL1        0.0400
     25 C         141.4871  140.4315  167.2101 C.ar    1  UNL1        0.0041
     26 C         140.7157  140.6411  168.4793 C.ar    1  UNL1        0.0139
     27 C         139.3306  140.0820  168.6163 C.ar    1  UNL1        0.0881
     28 CL        138.5593  140.2916  169.8855 Cl      1  UNL1       -0.0798
     29 C         138.7169  139.3131  167.4839 C.ar    1  UNL1        0.1849
     30 F         137.3318  138.7539  167.6209 F       1  UNL1       -0.2000
@<TRIPOS>BOND
     1    15    16    1
     2    16    17   ar
     3    17    18   ar
     4    18     1    1
     5     1     2   ar
     6     2     3   ar
     7     3     4   ar
     8     4     5   ar
     9     5     6   ar
    10     5     7    1
    11     7     8   ar
    12     8     9   ar
    13     9    10   ar
    14    10    22    1
    15    22    23    1
    16    23    24   ar
    17    24    25   ar
    18    25    26   ar
    19    26    27   ar
    20    27    28    1
    21    27    29   ar
    22    29    30    1
    23    10    11   ar
    24    11    12    1
    25    12    13    1
    26    13    14    1
    27    18    19   ar
    28    19    20   ar
    29    20    21   ar
    30    21    16   ar
    31     6     1   ar
    32    11     7   ar
    33    14     4    1
    34    29    23   ar
@<TRIPOS>MOLECULE
*****
 30 34 0 0 0
SMALL
GASTEIGER

@<TRIPOS>ATOM
      1 C         141.9091  142.2846  167.2076 C.ar    1  UNL1        0.0004
      2 C         143.3797  142.4946  166.9998 C.ar    1  UNL1        0.0031
      3 C         143.8985  142.8789  165.6459 C.ar    1  UNL1        0.0370
      4 C         142.9466  143.0531  164.4997 C.ar    1  UNL1        0.1415
      5 C         141.4761  142.8431  164.7075 C.ar    1  UNL1        0.0699
      6 C         140.9573  142.4588  166.0614 C.ar    1  UNL1        0.0061
      7 C         140.3637  142.9642  163.7086 C.ar    1  UNL1        0.1718
      8 N         138.9214  142.7262  164.0449 N.ar    1  UNL1       -0.1258
      9 N         138.1135  142.9401  162.7992 N.ar    1  UNL1       -0.0913
     10 C         139.0565  143.3105  161.6931 C.ar    1  UNL1        0.3249
     11 N         140.4472  143.3254  162.2551 N.ar    1  UNL1       -0.2613
     12 C         141.6637  143.6545  161.4416 C.3     1  UNL1        0.1592
     13 C         143.0971  143.7039  161.8806 C.3     1  UNL1        0.2299
     14 O         143.6681  143.4362  163.2417 O.3     1  UNL1       -0.4733
     15 C         138.2652  140.0511  170.1629 C.3     1  UNL1        0.0521
     16 C         139.5683  140.7835  170.0392 C.ar    1  UNL1        0.0594
     17 C         140.0872  141.1678  168.6852 C.ar    1  UNL1        0.0147
     18 C         141.3903  141.9002  168.5616 C.ar    1  UNL1        0.0027
     19 C         142.1746  142.2484  169.7918 C.ar    1  UNL1        0.0207
     20 C         141.6559  141.8642  171.1458 C.ar    1  UNL1        0.0984
     21 N         140.3527  141.1317  171.2695 N.ar    1  UNL1       -0.2481
     22 O         138.6756  143.6128  160.2741 O.3     1  UNL1       -0.4201
     23 C         138.7950  142.5497  159.2226 C.ar    1  UNL1        0.1767
     24 C         138.5606  141.1119  159.5799 C.ar    1  UNL1        0.0400
     25 C         138.6800  140.0488  158.5283 C.ar    1  UNL1        0.0041
     26 C         139.0338  140.4236  157.1197 C.ar    1  UNL1        0.0139
     27 C         139.2683  141.8615  156.7625 C.ar    1  UNL1        0.0881
     28 CL        139.6221  142.2363  155.3539 Cl      1  UNL1       -0.0798
     29 C         139.1488  142.9245  157.8141 C.ar    1  UNL1        0.1849
     30 F         139.3833  144.3624  157.4568 F       1  UNL1       -0.2000
@<TRIPOS>BOND
     1    15    16    1
     2    16    17   ar
     3    17    18   ar
     4    18     1    1
     5     1     2   ar
     6     2     3   ar
     7     3     4   ar
     8     4     5   ar
     9     5     6   ar
    10     5     7    1
    11     7     8   ar
    12     8     9   ar
    13     9    10   ar
    14    10    22    1
    15    22    23    1
    16    23    24   ar
    17    24    25   ar
    18    25    26   ar
    19    26    27   ar
    20    27    28    1
    21    27    29   ar
    22    29    30    1
    23    10    11   ar
    24    11    12    1
    25    12    13    1
    26    13    14    1
    27    18    19   ar
    28    19    20   ar
    29    20    21   ar
    30    21    16   ar
    31     6     1   ar
    32    11     7   ar
    33    14     4    1
    34    29    23   ar
