@<TRIPOS>MOLECULE
*****
 45 48 0 0 0
SMALL
GASTEIGER

@<TRIPOS>ATOM
      1 C         145.1705  141.6895  162.7460 C.3     1  UNL1        0.0724
      2 C         142.7540  139.2769  159.8151 C.3     1  UNL1        0.0781
      3 C         143.1427  140.6875  159.4850 C.3     1  UNL1        0.0372
      4 C         143.9482  141.4917  160.4620 C.3     1  UNL1        0.0738
      5 N         144.3650  140.8853  161.7691 N.3     1  UNL1       -0.2726
      6 C         143.9763  139.4746  162.0992 C.3     1  UNL1        0.0738
      7 C         143.1708  138.6704  161.1223 C.3     1  UNL1        0.0372
      8 N         141.9485  138.4727  158.8382 N.am    1  UNL1       -0.2808
      9 C         140.4842  138.7490  158.6665 C.2     1  UNL1        0.2300
     10 O         139.6787  137.9448  157.6896 O.2     1  UNL1       -0.2745
     11 C         142.9897  137.6483  156.6053 C.3     1  UNL1        0.0233
     12 C         142.6073  137.3922  158.0329 C.3     1  UNL1        0.0934
     13 C         139.8254  139.8295  159.4718 C.3     1  UNL1        0.1116
     14 C         139.4941  139.5927  160.9155 C.ar    1  UNL1       -0.0130
     15 C         138.9196  138.2760  161.3470 C.ar    1  UNL1       -0.0025
     16 C         138.5882  138.0393  162.7906 C.ar    1  UNL1        0.0180
     17 C         138.8315  139.1193  163.8028 C.ar    1  UNL1        0.1057
     18 C         139.4060  140.4360  163.3713 C.ar    1  UNL1        0.0180
     19 C         139.7373  140.6727  161.9277 C.ar    1  UNL1       -0.0025
     20 S         138.5001  138.8825  165.2465 S.O2    1  UNL1        0.0104
     21 C         138.1688  138.6458  166.6901 C.3     1  UNL1        0.1816
     22 O         138.1189  140.3255  165.3956 O.2     1  UNL1       -0.1686
     23 O         138.8813  137.4395  165.0974 O.2     1  UNL1       -0.1686
     24 C         144.5837  142.9228  163.3661 C.3     1  UNL1        0.0217
     25 C         143.2445  142.8596  164.0389 C.3     1  UNL1        0.0238
     26 C         142.0775  143.6013  163.4577 C.ar    1  UNL1       -0.0225
     27 C         142.2106  144.2877  162.1306 C.ar    1  UNL1       -0.0043
     28 C         141.0435  145.0294  161.5494 C.ar    1  UNL1       -0.0004
     29 C         139.7433  145.0846  162.2953 C.ar    1  UNL1        0.0038
     30 C         139.6101  144.3982  163.6224 C.ar    1  UNL1        0.0711
     31 C         140.7772  143.6565  164.2036 C.ar    1  UNL1       -0.0004
     32 C         138.3098  144.4535  164.3682 C.3     1  UNL1        0.4186
     33 F         137.0096  144.5087  165.1141 F       1  UNL1       -0.1659
     34 F         137.6687  143.6006  163.3139 F       1  UNL1       -0.1659
     35 F         138.9509  145.3063  165.4226 F       1  UNL1       -0.1659
     36 C         143.0724  142.0547  165.2928 C.3     1  UNL1        0.0070
     37 C         142.6668  140.6130  165.2089 C.3     1  UNL1        0.0195
     38 C         142.4947  139.8081  166.4629 C.3     1  UNL1        0.0954
     39 N         142.7282  140.4448  167.8008 N.3     1  UNL1       -0.1594
     40 C         143.1338  141.8864  167.8848 C.3     1  UNL1        0.0954
     41 C         143.3060  142.6914  166.6308 C.3     1  UNL1        0.0195
     42 S         142.5561  139.6399  169.0548 S.O2    1  UNL1        0.0457
     43 C         142.3840  138.8349  170.3088 C.3     1  UNL1        0.1960
     44 O         141.8155  140.7814  169.6859 O.2     1  UNL1       -0.1572
     45 O         143.2967  138.4983  168.4236 O.2     1  UNL1       -0.1572
@<TRIPOS>BOND
     1    11    12    1
     2    12     8    1
     3     8     9   am
     4     9    10    2
     5     9    13    1
     6    13    14    1
     7    14    15   ar
     8    15    16   ar
     9    16    17   ar
    10    17    20    1
    11    20    21    1
    12    20    22    2
    13    20    23    2
    14    17    18   ar
    15    18    19   ar
    16     8     2    1
    17     2     3    1
    18     3     4    1
    19     4     5    1
    20     5     1    1
    21     1    24    1
    22    25    24    1
    23    25    26    1
    24    26    27   ar
    25    27    28   ar
    26    28    29   ar
    27    29    30   ar
    28    30    32    1
    29    32    33    1
    30    32    34    1
    31    32    35    1
    32    30    31   ar
    33    25    36    1
    34    36    37    1
    35    37    38    1
    36    38    39    1
    37    39    42    1
    38    42    43    1
    39    42    44    2
    40    42    45    2
    41    39    40    1
    42    40    41    1
    43     5     6    1
    44     6     7    1
    45    19    14   ar
    46     7     2    1
    47    31    26   ar
    48    41    36    1
@<TRIPOS>MOLECULE
*****
 45 48 0 0 0
SMALL
GASTEIGER

@<TRIPOS>ATOM
      1 C         145.7087  142.0056  163.6456 C.3     1  UNL1        0.0724
      2 C         142.3635  144.2890  161.6844 C.3     1  UNL1        0.0781
      3 C         142.8487  143.0040  161.0816 C.3     1  UNL1        0.0372
      4 C         143.9637  142.2429  161.7354 C.3     1  UNL1        0.0738
      5 N         144.5936  142.7667  162.9918 N.3     1  UNL1       -0.2726
      6 C         144.1085  144.0518  163.5947 C.3     1  UNL1        0.0738
      7 C         142.9934  144.8129  162.9410 C.3     1  UNL1        0.0372
      8 N         141.2485  145.0501  161.0307 N.am    1  UNL1       -0.2808
      9 C         140.1250  145.5959  161.8615 C.2     1  UNL1        0.2300
     10 O         139.0100  146.3570  161.2078 O.2     1  UNL1       -0.2745
     11 C         140.3894  144.4208  158.6610 C.3     1  UNL1        0.0233
     12 C         141.2569  145.2656  159.5463 C.3     1  UNL1        0.0934
     13 C         140.1167  145.3804  163.3459 C.3     1  UNL1        0.1116
     14 C         139.7252  144.0459  163.9079 C.ar    1  UNL1       -0.0130
     15 C         139.0420  143.0356  163.0347 C.ar    1  UNL1       -0.0025
     16 C         138.6505  141.7011  163.5967 C.ar    1  UNL1        0.0180
     17 C         138.9423  141.3769  165.0319 C.ar    1  UNL1        0.1057
     18 C         139.6256  142.3872  165.9051 C.ar    1  UNL1        0.0180
     19 C         140.0170  143.7217  165.3431 C.ar    1  UNL1       -0.0025
     20 S         138.5509  140.0424  165.5939 S.O2    1  UNL1        0.0104
     21 C         138.1594  138.7079  166.1560 C.3     1  UNL1        0.1816
     22 O         139.3660  140.3205  166.8220 O.2     1  UNL1       -0.1686
     23 O         137.7357  139.7642  164.3659 O.2     1  UNL1       -0.1686
     24 C         145.5307  140.5543  163.9804 C.3     1  UNL1        0.0217
     25 C         144.1668  140.0215  164.3058 C.3     1  UNL1        0.0238
     26 C         143.3989  139.2468  163.2762 C.ar    1  UNL1       -0.0225
     27 C         144.0357  138.9131  161.9597 C.ar    1  UNL1       -0.0043
     28 C         143.2677  138.1384  160.9301 C.ar    1  UNL1       -0.0004
     29 C         141.8630  137.6974  161.2169 C.ar    1  UNL1        0.0038
     30 C         141.2262  138.0311  162.5334 C.ar    1  UNL1        0.0711
     31 C         141.9941  138.8058  163.5630 C.ar    1  UNL1       -0.0004
     32 C         139.8214  137.5901  162.8202 C.3     1  UNL1        0.4186
     33 F         138.4167  137.1492  163.1070 F       1  UNL1       -0.1659
     34 F         140.2340  137.1737  164.2009 F       1  UNL1       -0.1659
     35 F         139.4089  138.0066  161.4395 F       1  UNL1       -0.1659
     36 C         143.5707  140.2634  165.6609 C.3     1  UNL1        0.0070
     37 C         143.2833  139.1063  166.5712 C.3     1  UNL1        0.0195
     38 C         142.6873  139.3482  167.9263 C.3     1  UNL1        0.0954
     39 N         142.3787  140.7471  168.3711 N.3     1  UNL1       -0.1594
     40 C         142.6661  141.9041  167.4608 C.3     1  UNL1        0.0954
     41 C         143.2621  141.6623  166.1057 C.3     1  UNL1        0.0195
     42 S         141.7826  140.9890  169.7261 S.O2    1  UNL1        0.0457
     43 C         141.1866  141.2309  171.0812 C.3     1  UNL1        0.1960
     44 O         142.5117  142.2970  169.8133 O.2     1  UNL1       -0.1572
     45 O         141.0536  139.6810  169.6389 O.2     1  UNL1       -0.1572
@<TRIPOS>BOND
     1    11    12    1
     2    12     8    1
     3     8     9   am
     4     9    10    2
     5     9    13    1
     6    13    14    1
     7    14    15   ar
     8    15    16   ar
     9    16    17   ar
    10    17    20    1
    11    20    21    1
    12    20    22    2
    13    20    23    2
    14    17    18   ar
    15    18    19   ar
    16     8     2    1
    17     2     3    1
    18     3     4    1
    19     4     5    1
    20     5     1    1
    21     1    24    1
    22    25    24    1
    23    25    26    1
    24    26    27   ar
    25    27    28   ar
    26    28    29   ar
    27    29    30   ar
    28    30    32    1
    29    32    33    1
    30    32    34    1
    31    32    35    1
    32    30    31   ar
    33    25    36    1
    34    36    37    1
    35    37    38    1
    36    38    39    1
    37    39    42    1
    38    42    43    1
    39    42    44    2
    40    42    45    2
    41    39    40    1
    42    40    41    1
    43     5     6    1
    44     6     7    1
    45    19    14   ar
    46     7     2    1
    47    31    26   ar
    48    41    36    1
@<TRIPOS>MOLECULE
*****
 45 48 0 0 0
SMALL
GASTEIGER

@<TRIPOS>ATOM
      1 C         140.2808  138.3845  160.8843 C.3     1  UNL1        0.0724
      2 C         139.0792  138.8970  165.1906 C.3     1  UNL1        0.0781
      3 C         138.5335  139.8230  164.1444 C.3     1  UNL1        0.0372
      4 C         138.9340  139.6522  162.7090 C.3     1  UNL1        0.0738
      5 N         139.8803  138.5554  162.3198 N.3     1  UNL1       -0.2726
      6 C         140.4261  137.6293  163.3660 C.3     1  UNL1        0.0738
      7 C         140.0256  137.8001  164.8014 C.3     1  UNL1        0.0372
      8 N         138.6787  139.0678  166.6260 N.am    1  UNL1       -0.2808
      9 C         139.5044  139.9261  167.5380 C.2     1  UNL1        0.2300
     10 O         139.1039  140.0969  168.9734 O.2     1  UNL1       -0.2745
     11 C         137.2928  136.8988  166.9784 C.3     1  UNL1        0.0233
     12 C         137.4526  138.3803  167.1494 C.3     1  UNL1        0.0934
     13 C         140.7305  140.6135  167.0146 C.3     1  UNL1        0.1116
     14 C         140.5986  141.7246  166.0155 C.ar    1  UNL1       -0.0130
     15 C         141.5730  141.8320  164.8801 C.ar    1  UNL1       -0.0025
     16 C         141.4410  142.9431  163.8811 C.ar    1  UNL1        0.0180
     17 C         140.3347  143.9468  164.0175 C.ar    1  UNL1        0.1057
     18 C         139.3604  143.8395  165.1529 C.ar    1  UNL1        0.0180
     19 C         139.4923  142.7284  166.1519 C.ar    1  UNL1       -0.0025
     20 S         140.2028  145.0579  163.0184 S.O2    1  UNL1        0.0104
     21 C         140.0708  146.1690  162.0194 C.3     1  UNL1        0.1816
     22 O         138.7109  144.9053  163.0457 O.2     1  UNL1       -0.1686
     23 O         141.6947  145.2106  162.9911 O.2     1  UNL1       -0.1686
     24 C         141.6707  138.7397  160.4461 C.3     1  UNL1        0.0217
     25 C         142.2010  140.1229  160.6820 C.3     1  UNL1        0.0238
     26 C         143.2297  140.3601  161.7475 C.ar    1  UNL1       -0.0225
     27 C         144.2032  141.4932  161.6112 C.ar    1  UNL1       -0.0043
     28 C         145.2320  141.7304  162.6768 C.ar    1  UNL1       -0.0004
     29 C         145.2873  140.8346  163.8786 C.ar    1  UNL1        0.0038
     30 C         144.3139  139.7015  164.0149 C.ar    1  UNL1        0.0711
     31 C         143.2851  139.4642  162.9494 C.ar    1  UNL1       -0.0004
     32 C         144.3693  138.8056  165.2167 C.3     1  UNL1        0.4186
     33 F         144.4247  137.9098  166.4185 F       1  UNL1       -0.1659
     34 F         142.8719  138.8282  165.3026 F       1  UNL1       -0.1659
     35 F         145.8666  138.7830  165.1308 F       1  UNL1       -0.1659
     36 C         141.7026  141.2688  159.8523 C.3     1  UNL1        0.0070
     37 C         142.2513  141.4914  158.4741 C.3     1  UNL1        0.0195
     38 C         141.7529  142.6374  157.6445 C.3     1  UNL1        0.0954
     39 N         140.7057  143.5607  158.1930 N.3     1  UNL1       -0.1594
     40 C         140.1570  143.3382  159.5711 C.3     1  UNL1        0.0954
     41 C         140.6554  142.1922  160.4008 C.3     1  UNL1        0.0195
     42 S         140.2073  144.7066  157.3633 S.O2    1  UNL1        0.0457
     43 C         139.7088  145.8527  156.5337 C.3     1  UNL1        0.1960
     44 O         139.9939  143.7762  156.2063 O.2     1  UNL1       -0.1572
     45 O         140.4207  145.6371  158.5203 O.2     1  UNL1       -0.1572
@<TRIPOS>BOND
     1    11    12    1
     2    12     8    1
     3     8     9   am
     4     9    10    2
     5     9    13    1
     6    13    14    1
     7    14    15   ar
     8    15    16   ar
     9    16    17   ar
    10    17    20    1
    11    20    21    1
    12    20    22    2
    13    20    23    2
    14    17    18   ar
    15    18    19   ar
    16     8     2    1
    17     2     3    1
    18     3     4    1
    19     4     5    1
    20     5     1    1
    21     1    24    1
    22    25    24    1
    23    25    26    1
    24    26    27   ar
    25    27    28   ar
    26    28    29   ar
    27    29    30   ar
    28    30    32    1
    29    32    33    1
    30    32    34    1
    31    32    35    1
    32    30    31   ar
    33    25    36    1
    34    36    37    1
    35    37    38    1
    36    38    39    1
    37    39    42    1
    38    42    43    1
    39    42    44    2
    40    42    45    2
    41    39    40    1
    42    40    41    1
    43     5     6    1
    44     6     7    1
    45    19    14   ar
    46     7     2    1
    47    31    26   ar
    48    41    36    1
@<TRIPOS>MOLECULE
*****
 45 48 0 0 0
SMALL
GASTEIGER

@<TRIPOS>ATOM
      1 C         144.3078  139.0525  162.8487 C.3     1  UNL1        0.0724
      2 C         142.6123  140.4626  166.7714 C.3     1  UNL1        0.0781
      3 C         142.6328  138.9984  166.4462 C.3     1  UNL1        0.0372
      4 C         143.1980  138.5284  165.1386 C.3     1  UNL1        0.0738
      5 N         143.7426  139.5225  164.1563 N.3     1  UNL1       -0.2726
      6 C         143.7222  140.9867  164.4815 C.3     1  UNL1        0.0738
      7 C         143.1570  141.4568  165.7890 C.3     1  UNL1        0.0372
      8 N         142.0472  140.9326  168.0789 N.am    1  UNL1       -0.2808
      9 C         140.5831  141.2367  168.1972 C.2     1  UNL1        0.2300
     10 O         140.0179  141.7067  169.5047 O.2     1  UNL1       -0.2745
     11 C         143.5345  142.4422  169.5818 C.3     1  UNL1        0.0233
     12 C         142.9461  141.0985  169.2682 C.3     1  UNL1        0.0934
     13 C         139.6841  141.0707  167.0079 C.3     1  UNL1        0.1116
     14 C         139.6818  142.1031  165.9196 C.ar    1  UNL1       -0.0130
     15 C         139.7499  141.6782  164.4827 C.ar    1  UNL1       -0.0025
     16 C         139.7476  142.7105  163.3945 C.ar    1  UNL1        0.0180
     17 C         139.6771  144.1677  163.7432 C.ar    1  UNL1        0.1057
     18 C         139.6090  144.5926  165.1802 C.ar    1  UNL1        0.0180
     19 C         139.6114  143.5603  166.2684 C.ar    1  UNL1       -0.0025
     20 S         139.6748  145.2001  162.6549 S.O2    1  UNL1        0.0104
     21 C         139.6724  146.2324  161.5667 C.3     1  UNL1        0.1816
     22 O         138.2056  144.9792  162.4487 O.2     1  UNL1       -0.1686
     23 O         141.1440  145.4209  162.8612 O.2     1  UNL1       -0.1686
     24 C         143.5915  137.9984  162.0577 C.3     1  UNL1        0.0217
     25 C         142.5474  138.3927  161.0555 C.3     1  UNL1        0.0238
     26 C         141.1164  138.5383  161.4810 C.ar    1  UNL1       -0.0225
     27 C         140.0805  138.9798  160.4902 C.ar    1  UNL1       -0.0043
     28 C         138.6494  139.1254  160.9158 C.ar    1  UNL1       -0.0004
     29 C         138.2544  138.8294  162.3322 C.ar    1  UNL1        0.0038
     30 C         139.2904  138.3878  163.3231 C.ar    1  UNL1        0.0711
     31 C         140.7213  138.2423  162.8975 C.ar    1  UNL1       -0.0004
     32 C         138.8953  138.0918  164.7396 C.3     1  UNL1        0.4186
     33 F         138.5003  137.7958  166.1560 F       1  UNL1       -0.1659
     34 F         137.8195  139.1338  164.6573 F       1  UNL1       -0.1659
     35 F         139.9712  137.0498  164.8218 F       1  UNL1       -0.1659
     36 C         142.9342  138.6415  159.6278 C.3     1  UNL1        0.0070
     37 C         142.6194  137.6191  158.5763 C.3     1  UNL1        0.0195
     38 C         143.0062  137.8679  157.1486 C.3     1  UNL1        0.0954
     39 N         143.7079  139.1391  156.7723 N.3     1  UNL1       -0.1594
     40 C         144.0227  140.1615  157.8236 C.3     1  UNL1        0.0954
     41 C         143.6359  139.9128  159.2515 C.3     1  UNL1        0.0195
     42 S         144.0947  139.3879  155.3446 S.O2    1  UNL1        0.0457
     43 C         144.4816  139.6367  153.9168 C.3     1  UNL1        0.1960
     44 O         145.4241  138.7386  155.5916 O.2     1  UNL1       -0.1572
     45 O         142.7654  140.0372  155.0975 O.2     1  UNL1       -0.1572
@<TRIPOS>BOND
     1    11    12    1
     2    12     8    1
     3     8     9   am
     4     9    10    2
     5     9    13    1
     6    13    14    1
     7    14    15   ar
     8    15    16   ar
     9    16    17   ar
    10    17    20    1
    11    20    21    1
    12    20    22    2
    13    20    23    2
    14    17    18   ar
    15    18    19   ar
    16     8     2    1
    17     2     3    1
    18     3     4    1
    19     4     5    1
    20     5     1    1
    21     1    24    1
    22    25    24    1
    23    25    26    1
    24    26    27   ar
    25    27    28   ar
    26    28    29   ar
    27    29    30   ar
    28    30    32    1
    29    32    33    1
    30    32    34    1
    31    32    35    1
    32    30    31   ar
    33    25    36    1
    34    36    37    1
    35    37    38    1
    36    38    39    1
    37    39    42    1
    38    42    43    1
    39    42    44    2
    40    42    45    2
    41    39    40    1
    42    40    41    1
    43     5     6    1
    44     6     7    1
    45    19    14   ar
    46     7     2    1
    47    31    26   ar
    48    41    36    1
@<TRIPOS>MOLECULE
*****
 45 48 0 0 0
SMALL
GASTEIGER

@<TRIPOS>ATOM
      1 C         144.6783  142.2011  163.5817 C.3     1  UNL1        0.0724
      2 C         142.5443  140.5627  167.1889 C.3     1  UNL1        0.0781
      3 C         142.8986  142.0188  167.1242 C.3     1  UNL1        0.0372
      4 C         143.6100  142.5649  165.9218 C.3     1  UNL1        0.0738
      5 N         143.9670  141.6549  164.7841 N.3     1  UNL1       -0.2726
      6 C         143.6126  140.1988  164.8487 C.3     1  UNL1        0.0738
      7 C         142.9013  139.6526  166.0511 C.3     1  UNL1        0.0372
      8 N         141.8329  140.0166  168.3912 N.am    1  UNL1       -0.2808
      9 C         140.3530  140.2115  168.5399 C.2     1  UNL1        0.2300
     10 O         139.6417  139.6654  169.7423 O.2     1  UNL1       -0.2745
     11 C         142.9965  139.9712  170.7136 C.3     1  UNL1        0.0233
     12 C         142.6014  139.2755  169.4449 C.3     1  UNL1        0.0934
     13 C         139.5846  140.9526  167.4863 C.3     1  UNL1        0.1116
     14 C         139.3935  140.3429  166.1291 C.ar    1  UNL1       -0.0130
     15 C         139.4041  141.2134  164.9076 C.ar    1  UNL1       -0.0025
     16 C         139.2130  140.6037  163.5505 C.ar    1  UNL1        0.0180
     17 C         139.0112  139.1235  163.4150 C.ar    1  UNL1        0.1057
     18 C         139.0006  138.2531  164.6365 C.ar    1  UNL1        0.0180
     19 C         139.1917  138.8628  165.9935 C.ar    1  UNL1       -0.0025
     20 S         138.8201  138.5138  162.0578 S.O2    1  UNL1        0.0104
     21 C         138.6290  137.9041  160.7007 C.3     1  UNL1        0.1816
     22 O         139.9234  137.5378  162.3409 O.2     1  UNL1       -0.1686
     23 O         137.7169  139.4898  161.7747 O.2     1  UNL1       -0.1686
     24 C         144.0654  143.3188  162.7911 C.3     1  UNL1        0.0217
     25 C         142.8779  143.0537  161.9140 C.3     1  UNL1        0.0238
     26 C         141.6827  143.9579  161.9762 C.ar    1  UNL1       -0.0225
     27 C         141.4249  144.9375  160.8699 C.ar    1  UNL1       -0.0043
     28 C         140.2296  145.8417  160.9322 C.ar    1  UNL1       -0.0004
     29 C         139.2923  145.7663  162.1008 C.ar    1  UNL1        0.0038
     30 C         139.5501  144.7868  163.2072 C.ar    1  UNL1        0.0711
     31 C         140.7453  143.8826  163.1449 C.ar    1  UNL1       -0.0004
     32 C         138.6127  144.7114  164.3758 C.3     1  UNL1        0.4186
     33 F         137.6754  144.6361  165.5444 F       1  UNL1       -0.1659
     34 F         137.4809  144.3855  163.4470 F       1  UNL1       -0.1659
     35 F         139.7445  145.0373  165.3046 F       1  UNL1       -0.1659
     36 C         142.8855  141.8844  160.9745 C.3     1  UNL1        0.0070
     37 C         143.7441  141.9158  159.7449 C.3     1  UNL1        0.0195
     38 C         143.7517  140.7465  158.8054 C.3     1  UNL1        0.0954
     39 N         142.9008  139.5457  159.0955 N.3     1  UNL1       -0.1594
     40 C         142.0422  139.5143  160.3251 C.3     1  UNL1        0.0954
     41 C         142.0346  140.6836  161.2646 C.3     1  UNL1        0.0195
     42 S         142.9084  138.3764  158.1561 S.O2    1  UNL1        0.0457
     43 C         142.9160  137.2070  157.2166 C.3     1  UNL1        0.1960
     44 O         143.7238  139.1682  157.1772 O.2     1  UNL1       -0.1572
     45 O         142.0930  137.5847  159.1349 O.2     1  UNL1       -0.1572
@<TRIPOS>BOND
     1    11    12    1
     2    12     8    1
     3     8     9   am
     4     9    10    2
     5     9    13    1
     6    13    14    1
     7    14    15   ar
     8    15    16   ar
     9    16    17   ar
    10    17    20    1
    11    20    21    1
    12    20    22    2
    13    20    23    2
    14    17    18   ar
    15    18    19   ar
    16     8     2    1
    17     2     3    1
    18     3     4    1
    19     4     5    1
    20     5     1    1
    21     1    24    1
    22    25    24    1
    23    25    26    1
    24    26    27   ar
    25    27    28   ar
    26    28    29   ar
    27    29    30   ar
    28    30    32    1
    29    32    33    1
    30    32    34    1
    31    32    35    1
    32    30    31   ar
    33    25    36    1
    34    36    37    1
    35    37    38    1
    36    38    39    1
    37    39    42    1
    38    42    43    1
    39    42    44    2
    40    42    45    2
    41    39    40    1
    42    40    41    1
    43     5     6    1
    44     6     7    1
    45    19    14   ar
    46     7     2    1
    47    31    26   ar
    48    41    36    1
@<TRIPOS>MOLECULE
*****
 45 48 0 0 0
SMALL
GASTEIGER

@<TRIPOS>ATOM
      1 C         145.0108  140.4818  163.1661 C.3     1  UNL1        0.0724
      2 C         142.6538  140.9735  166.9678 C.3     1  UNL1        0.0781
      3 C         143.0951  142.1824  166.1972 C.3     1  UNL1        0.0372
      4 C         143.8807  142.0185  164.9300 C.3     1  UNL1        0.0738
      5 N         144.2252  140.6457  164.4333 N.3     1  UNL1       -0.2726
      6 C         143.7839  139.4367  165.2039 C.3     1  UNL1        0.0738
      7 C         142.9983  139.6006  166.4711 C.3     1  UNL1        0.0372
      8 N         141.8682  141.1374  168.2350 N.am    1  UNL1       -0.2808
      9 C         140.3699  141.0736  168.2021 C.2     1  UNL1        0.2300
     10 O         139.5842  141.2375  169.4693 O.2     1  UNL1       -0.2745
     11 C         142.9555  140.1979  170.3995 C.3     1  UNL1        0.0233
     12 C         142.5808  141.3651  169.5351 C.3     1  UNL1        0.0934
     13 C         139.6573  140.8458  166.9020 C.3     1  UNL1        0.1116
     14 C         139.6551  141.9156  165.8505 C.ar    1  UNL1       -0.0130
     15 C         139.6066  143.3604  166.2505 C.ar    1  UNL1       -0.0025
     16 C         139.6044  144.4301  165.1990 C.ar    1  UNL1        0.0180
     17 C         139.6508  144.0550  163.7474 C.ar    1  UNL1        0.1057
     18 C         139.6993  142.6101  163.3474 C.ar    1  UNL1        0.0180
     19 C         139.7015  141.5405  164.3989 C.ar    1  UNL1       -0.0025
     20 S         139.6486  145.1247  162.6959 S.O2    1  UNL1        0.0104
     21 C         139.6465  146.1944  161.6444 C.3     1  UNL1        0.1816
     22 O         141.0718  145.4582  163.0323 O.2     1  UNL1       -0.1686
     23 O         138.2254  144.7912  162.3595 O.2     1  UNL1       -0.1686
     24 C         144.4251  139.7211  162.0136 C.3     1  UNL1        0.0217
     25 C         143.0517  140.0578  161.5132 C.3     1  UNL1        0.0238
     26 C         141.8756  139.2273  161.9338 C.ar    1  UNL1       -0.0225
     27 C         142.0672  138.0832  162.8848 C.ar    1  UNL1       -0.0043
     28 C         140.8910  137.2526  163.3055 C.ar    1  UNL1       -0.0004
     29 C         139.5234  137.5662  162.7752 C.ar    1  UNL1        0.0038
     30 C         139.3319  138.7103  161.8242 C.ar    1  UNL1        0.0711
     31 C         140.5079  139.5408  161.4036 C.ar    1  UNL1       -0.0004
     32 C         137.9641  139.0238  161.2940 C.3     1  UNL1        0.4186
     33 F         136.5965  139.3374  160.7637 F       1  UNL1       -0.1659
     34 F         137.4797  137.6788  161.7480 F       1  UNL1       -0.1659
     35 F         138.4486  140.3689  160.8399 F       1  UNL1       -0.1659
     36 C         142.8544  141.2251  160.5921 C.3     1  UNL1        0.0070
     37 C         142.9516  141.0338  159.1074 C.3     1  UNL1        0.0195
     38 C         142.7543  142.2011  158.1863 C.3     1  UNL1        0.0954
     39 N         142.4597  143.5597  158.7498 N.3     1  UNL1       -0.1594
     40 C         142.3625  143.7510  160.2343 C.3     1  UNL1        0.0954
     41 C         142.5598  142.5837  161.1555 C.3     1  UNL1        0.0195
     42 S         142.2624  144.7270  157.8286 S.O2    1  UNL1        0.0457
     43 C         142.0651  145.8943  156.9075 C.3     1  UNL1        0.1960
     44 O         142.6047  143.8584  156.6546 O.2     1  UNL1       -0.1572
     45 O         141.9202  145.5955  159.0027 O.2     1  UNL1       -0.1572
@<TRIPOS>BOND
     1    11    12    1
     2    12     8    1
     3     8     9   am
     4     9    10    2
     5     9    13    1
     6    13    14    1
     7    14    15   ar
     8    15    16   ar
     9    16    17   ar
    10    17    20    1
    11    20    21    1
    12    20    22    2
    13    20    23    2
    14    17    18   ar
    15    18    19   ar
    16     8     2    1
    17     2     3    1
    18     3     4    1
    19     4     5    1
    20     5     1    1
    21     1    24    1
    22    25    24    1
    23    25    26    1
    24    26    27   ar
    25    27    28   ar
    26    28    29   ar
    27    29    30   ar
    28    30    32    1
    29    32    33    1
    30    32    34    1
    31    32    35    1
    32    30    31   ar
    33    25    36    1
    34    36    37    1
    35    37    38    1
    36    38    39    1
    37    39    42    1
    38    42    43    1
    39    42    44    2
    40    42    45    2
    41    39    40    1
    42    40    41    1
    43     5     6    1
    44     6     7    1
    45    19    14   ar
    46     7     2    1
    47    31    26   ar
    48    41    36    1
@<TRIPOS>MOLECULE
*****
 45 48 0 0 0
SMALL
GASTEIGER

@<TRIPOS>ATOM
      1 C         138.6037  138.4395  163.3807 C.3     1  UNL1        0.0724
      2 C         141.2853  139.7838  166.7350 C.3     1  UNL1        0.0781
      3 C         141.8741  139.1303  165.5201 C.3     1  UNL1        0.0372
      4 C         140.9802  138.6822  164.4020 C.3     1  UNL1        0.0738
      5 N         139.4975  138.8876  164.4988 N.3     1  UNL1       -0.2726
      6 C         138.9087  139.5412  165.7138 C.3     1  UNL1        0.0738
      7 C         139.8026  139.9893  166.8319 C.3     1  UNL1        0.0372
      8 N         142.1792  140.2319  167.8531 N.am    1  UNL1       -0.2808
      9 C         142.5867  141.6719  167.9564 C.2     1  UNL1        0.2300
     10 O         143.4806  142.1200  169.0745 O.2     1  UNL1       -0.2745
     11 C         142.0073  139.1597  170.2133 C.3     1  UNL1        0.0233
     12 C         142.6656  139.2402  168.8679 C.3     1  UNL1        0.0934
     13 C         142.1003  142.6636  166.9417 C.3     1  UNL1        0.1116
     14 C         142.6844  142.6708  165.5600 C.ar    1  UNL1       -0.0130
     15 C         144.0796  142.1690  165.3330 C.ar    1  UNL1       -0.0025
     16 C         144.6636  142.1762  163.9514 C.ar    1  UNL1        0.0180
     17 C         143.8525  142.6852  162.7969 C.ar    1  UNL1        0.1057
     18 C         142.4573  143.1870  163.0239 C.ar    1  UNL1        0.0180
     19 C         141.8733  143.1798  164.4055 C.ar    1  UNL1       -0.0025
     20 S         144.4366  142.6924  161.4153 S.O2    1  UNL1        0.0104
     21 C         145.0207  142.6996  160.0337 C.3     1  UNL1        0.1816
     22 O         143.3960  143.6814  160.9805 O.2     1  UNL1       -0.1686
     23 O         145.4772  141.7034  161.8500 O.2     1  UNL1       -0.1686
     24 C         138.0304  139.4472  162.4290 C.3     1  UNL1        0.0217
     25 C         138.9435  140.2801  161.5789 C.3     1  UNL1        0.0238
     26 C         139.0289  141.7614  161.7987 C.ar    1  UNL1       -0.0225
     27 C         139.5340  142.6542  160.7042 C.ar    1  UNL1       -0.0043
     28 C         139.6194  144.1355  160.9241 C.ar    1  UNL1       -0.0004
     29 C         139.1998  144.7241  162.2384 C.ar    1  UNL1        0.0038
     30 C         138.6948  143.8314  163.3329 C.ar    1  UNL1        0.0711
     31 C         138.6093  142.3501  163.1131 C.ar    1  UNL1       -0.0004
     32 C         138.2752  144.4200  164.6473 C.3     1  UNL1        0.4186
     33 F         137.8556  145.0087  165.9616 F       1  UNL1       -0.1659
     34 F         137.1797  143.4010  164.7540 F       1  UNL1       -0.1659
     35 F         139.3706  145.4391  164.5405 F       1  UNL1       -0.1659
     36 C         139.7711  139.6317  160.5091 C.3     1  UNL1        0.0070
     37 C         139.1446  139.2611  159.1975 C.3     1  UNL1        0.0195
     38 C         139.9722  138.6127  158.1276 C.3     1  UNL1        0.0954
     39 N         141.4263  138.3349  158.3693 N.3     1  UNL1       -0.1594
     40 C         142.0528  138.7055  159.6808 C.3     1  UNL1        0.0954
     41 C         141.2252  139.3539  160.7508 C.3     1  UNL1        0.0195
     42 S         142.2539  137.6865  157.2995 S.O2    1  UNL1        0.0457
     43 C         143.0816  137.0381  156.2296 C.3     1  UNL1        0.1960
     44 O         141.0415  136.9547  156.8051 O.2     1  UNL1       -0.1572
     45 O         143.4663  138.4183  157.7939 O.2     1  UNL1       -0.1572
@<TRIPOS>BOND
     1    11    12    1
     2    12     8    1
     3     8     9   am
     4     9    10    2
     5     9    13    1
     6    13    14    1
     7    14    15   ar
     8    15    16   ar
     9    16    17   ar
    10    17    20    1
    11    20    21    1
    12    20    22    2
    13    20    23    2
    14    17    18   ar
    15    18    19   ar
    16     8     2    1
    17     2     3    1
    18     3     4    1
    19     4     5    1
    20     5     1    1
    21     1    24    1
    22    25    24    1
    23    25    26    1
    24    26    27   ar
    25    27    28   ar
    26    28    29   ar
    27    29    30   ar
    28    30    32    1
    29    32    33    1
    30    32    34    1
    31    32    35    1
    32    30    31   ar
    33    25    36    1
    34    36    37    1
    35    37    38    1
    36    38    39    1
    37    39    42    1
    38    42    43    1
    39    42    44    2
    40    42    45    2
    41    39    40    1
    42    40    41    1
    43     5     6    1
    44     6     7    1
    45    19    14   ar
    46     7     2    1
    47    31    26   ar
    48    41    36    1
@<TRIPOS>MOLECULE
*****
 45 48 0 0 0
SMALL
GASTEIGER

@<TRIPOS>ATOM
      1 C         144.9007  141.9978  162.7073 C.3     1  UNL1        0.0724
      2 C         142.5993  139.4198  159.8250 C.3     1  UNL1        0.0781
      3 C         142.9185  138.9084  161.1985 C.3     1  UNL1        0.0372
      4 C         143.6856  139.7677  162.1593 C.3     1  UNL1        0.0738
      5 N         144.1336  141.1385  161.7465 N.3     1  UNL1       -0.2726
      6 C         143.8144  141.6499  160.3730 C.3     1  UNL1        0.0738
      7 C         143.0473  140.7906  159.4122 C.3     1  UNL1        0.0372
      8 N         141.8322  138.5605  158.8642 N.am    1  UNL1       -0.2808
      9 C         140.3592  138.7742  158.6783 C.2     1  UNL1        0.2300
     10 O         139.5921  137.9149  157.7175 O.2     1  UNL1       -0.2745
     11 C         142.9330  137.7291  156.6627 C.3     1  UNL1        0.0233
     12 C         142.5381  137.4874  158.0894 C.3     1  UNL1        0.0934
     13 C         139.6533  139.8472  159.4530 C.3     1  UNL1        0.1116
     14 C         139.3603  139.6502  160.9110 C.ar    1  UNL1       -0.0130
     15 C         139.0711  138.2764  161.4389 C.ar    1  UNL1       -0.0025
     16 C         138.7782  138.0794  162.8967 C.ar    1  UNL1        0.0180
     17 C         138.7744  139.2564  163.8266 C.ar    1  UNL1        0.1057
     18 C         139.0635  140.6303  163.2987 C.ar    1  UNL1        0.0180
     19 C         139.3565  140.8272  161.8409 C.ar    1  UNL1       -0.0025
     20 S         138.4814  139.0594  165.2846 S.O2    1  UNL1        0.0104
     21 C         138.1884  138.8624  166.7424 C.3     1  UNL1        0.1816
     22 O         138.7766  137.5954  165.1460 O.2     1  UNL1       -0.1686
     23 O         138.1861  140.5235  165.4231 O.2     1  UNL1       -0.1686
     24 C         144.2297  143.1634  163.3714 C.3     1  UNL1        0.0217
     25 C         142.9003  142.9814  164.0418 C.3     1  UNL1        0.0238
     26 C         141.6749  143.6263  163.4652 C.ar    1  UNL1       -0.0225
     27 C         140.5833  144.1090  164.3737 C.ar    1  UNL1       -0.0043
     28 C         139.3579  144.7540  163.7970 C.ar    1  UNL1       -0.0004
     29 C         139.2242  144.9163  162.3119 C.ar    1  UNL1        0.0038
     30 C         140.3159  144.4337  161.4033 C.ar    1  UNL1        0.0711
     31 C         141.5412  143.7887  161.9800 C.ar    1  UNL1       -0.0004
     32 C         140.1821  144.5960  159.9181 C.3     1  UNL1        0.4186
     33 F         140.0483  144.7584  158.4330 F       1  UNL1       -0.1659
     34 F         140.5244  143.1479  159.7289 F       1  UNL1       -0.1659
     35 F         139.8398  146.0441  160.1073 F       1  UNL1       -0.1659
     36 C         142.7961  142.1543  165.2888 C.3     1  UNL1        0.0070
     37 C         142.1935  140.7819  165.2305 C.3     1  UNL1        0.0195
     38 C         142.0893  139.9549  166.4775 C.3     1  UNL1        0.0954
     39 N         142.5879  140.5002  167.7829 N.3     1  UNL1       -0.1594
     40 C         143.1906  141.8725  167.8413 C.3     1  UNL1        0.0954
     41 C         143.2947  142.6996  166.5943 C.3     1  UNL1        0.0195
     42 S         142.4838  139.6732  169.0300 S.O2    1  UNL1        0.0457
     43 C         142.3797  138.8460  170.2770 C.3     1  UNL1        0.1960
     44 O         141.7116  140.7736  169.6953 O.2     1  UNL1       -0.1572
     45 O         143.2559  138.5727  168.3646 O.2     1  UNL1       -0.1572
@<TRIPOS>BOND
     1    11    12    1
     2    12     8    1
     3     8     9   am
     4     9    10    2
     5     9    13    1
     6    13    14    1
     7    14    15   ar
     8    15    16   ar
     9    16    17   ar
    10    17    20    1
    11    20    21    1
    12    20    22    2
    13    20    23    2
    14    17    18   ar
    15    18    19   ar
    16     8     2    1
    17     2     3    1
    18     3     4    1
    19     4     5    1
    20     5     1    1
    21     1    24    1
    22    25    24    1
    23    25    26    1
    24    26    27   ar
    25    27    28   ar
    26    28    29   ar
    27    29    30   ar
    28    30    32    1
    29    32    33    1
    30    32    34    1
    31    32    35    1
    32    30    31   ar
    33    25    36    1
    34    36    37    1
    35    37    38    1
    36    38    39    1
    37    39    42    1
    38    42    43    1
    39    42    44    2
    40    42    45    2
    41    39    40    1
    42    40    41    1
    43     5     6    1
    44     6     7    1
    45    19    14   ar
    46     7     2    1
    47    31    26   ar
    48    41    36    1
@<TRIPOS>MOLECULE
*****
 45 48 0 0 0
SMALL
GASTEIGER

@<TRIPOS>ATOM
      1 C         145.7164  142.0796  163.5475 C.3     1  UNL1        0.0724
      2 C         142.2290  144.3436  161.8263 C.3     1  UNL1        0.0781
      3 C         142.7074  144.6458  163.2155 C.3     1  UNL1        0.0372
      4 C         143.8698  143.8911  163.7892 C.3     1  UNL1        0.0738
      5 N         144.5539  142.8343  162.9737 N.3     1  UNL1       -0.2726
      6 C         144.0756  142.5321  161.5845 C.3     1  UNL1        0.0738
      7 C         142.9132  143.2867  161.0108 C.3     1  UNL1        0.0372
      8 N         141.0666  145.0983  161.2526 N.am    1  UNL1       -0.2808
      9 C         139.9372  145.5258  162.1424 C.2     1  UNL1        0.2300
     10 O         138.7747  146.2805  161.5687 O.2     1  UNL1       -0.2745
     11 C         140.2094  144.5923  158.8528 C.3     1  UNL1        0.0233
     12 C         141.0335  145.4255  159.7891 C.3     1  UNL1        0.0934
     13 C         139.9703  145.1987  163.6059 C.3     1  UNL1        0.1116
     14 C         139.6195  143.8173  164.0738 C.ar    1  UNL1       -0.0130
     15 C         138.6873  142.9655  163.2643 C.ar    1  UNL1       -0.0025
     16 C         138.3365  141.5842  163.7322 C.ar    1  UNL1        0.0180
     17 C         138.9180  141.0547  165.0095 C.ar    1  UNL1        0.1057
     18 C         139.8502  141.9066  165.8190 C.ar    1  UNL1        0.0180
     19 C         140.2009  143.2879  165.3511 C.ar    1  UNL1       -0.0025
     20 S         138.5672  139.6734  165.4774 S.O2    1  UNL1        0.0104
     21 C         138.2164  138.2921  165.9453 C.3     1  UNL1        0.1816
     22 O         138.9251  140.0583  166.8822 O.2     1  UNL1       -0.1686
     23 O         138.2092  139.2884  164.0726 O.2     1  UNL1       -0.1686
     24 C         145.5242  140.6837  164.0616 C.3     1  UNL1        0.0217
     25 C         144.1400  140.1507  164.2852 C.3     1  UNL1        0.0238
     26 C         143.6175  139.9826  165.6812 C.ar    1  UNL1       -0.0225
     27 C         143.5051  138.6118  166.2798 C.ar    1  UNL1       -0.0043
     28 C         142.9826  138.4437  167.6759 C.ar    1  UNL1       -0.0004
     29 C         142.5725  139.6462  168.4731 C.ar    1  UNL1        0.0038
     30 C         142.6850  141.0170  167.8745 C.ar    1  UNL1        0.0711
     31 C         143.2075  141.1852  166.4785 C.ar    1  UNL1       -0.0004
     32 C         142.2749  142.2196  168.6718 C.3     1  UNL1        0.4186
     33 F         141.8649  143.4221  169.4691 F       1  UNL1       -0.1659
     34 F         143.6261  142.8303  168.4457 F       1  UNL1       -0.1659
     35 F         140.9237  141.6088  168.8979 F       1  UNL1       -0.1659
     36 C         143.2783  139.7860  163.1129 C.3     1  UNL1        0.0070
     37 C         141.8601  140.2700  163.0451 C.3     1  UNL1        0.0195
     38 C         140.9984  139.9052  161.8728 C.3     1  UNL1        0.0954
     39 N         141.5548  139.0564  160.7683 N.3     1  UNL1       -0.1594
     40 C         142.9729  138.5725  160.8360 C.3     1  UNL1        0.0954
     41 C         143.8347  138.9372  162.0084 C.3     1  UNL1        0.0195
     42 S         140.6931  138.6917  159.5959 S.O2    1  UNL1        0.0457
     43 C         139.8314  138.3269  158.4235 C.3     1  UNL1        0.1960
     44 O         139.5765  138.3291  160.5295 O.2     1  UNL1       -0.1572
     45 O         141.8097  139.0543  158.6624 O.2     1  UNL1       -0.1572
@<TRIPOS>BOND
     1    11    12    1
     2    12     8    1
     3     8     9   am
     4     9    10    2
     5     9    13    1
     6    13    14    1
     7    14    15   ar
     8    15    16   ar
     9    16    17   ar
    10    17    20    1
    11    20    21    1
    12    20    22    2
    13    20    23    2
    14    17    18   ar
    15    18    19   ar
    16     8     2    1
    17     2     3    1
    18     3     4    1
    19     4     5    1
    20     5     1    1
    21     1    24    1
    22    25    24    1
    23    25    26    1
    24    26    27   ar
    25    27    28   ar
    26    28    29   ar
    27    29    30   ar
    28    30    32    1
    29    32    33    1
    30    32    34    1
    31    32    35    1
    32    30    31   ar
    33    25    36    1
    34    36    37    1
    35    37    38    1
    36    38    39    1
    37    39    42    1
    38    42    43    1
    39    42    44    2
    40    42    45    2
    41    39    40    1
    42    40    41    1
    43     5     6    1
    44     6     7    1
    45    19    14   ar
    46     7     2    1
    47    31    26   ar
    48    41    36    1
