@<TRIPOS>MOLECULE
*****
 32 35 0 0 0
SMALL
GASTEIGER

@<TRIPOS>ATOM
      1 C         138.1958  140.3316  158.5736 C.ar    1  UNL1        0.1015
      2 C         139.3588  140.8684  157.7931 C.ar    1  UNL1        0.0240
      3 C         139.1453  141.4252  156.4168 C.ar    1  UNL1        0.0404
      4 C         137.7688  141.4453  155.8210 C.ar    1  UNL1        0.1639
      5 N         137.2553  141.9280  154.4968 N.ar    1  UNL1       -0.2234
      6 C         135.7748  141.6896  154.4591 C.ar    1  UNL1        0.1197
      7 C         135.3735  141.0595  155.7598 C.ar    1  UNL1        0.1035
      8 N         136.6058  140.9086  156.6015 N.ar    1  UNL1       -0.2107
      9 N         136.8193  140.3517  157.9779 N.ar    1  UNL1       -0.1638
     10 C         138.8360  138.6610  162.7028 C.ar    1  UNL1        0.0214
     11 C         139.4936  138.0123  161.5210 C.ar    1  UNL1       -0.0006
     12 C         139.2802  138.5691  160.1446 C.ar    1  UNL1        0.0014
     13 C         138.4092  139.7747  159.9500 C.ar    1  UNL1        0.0216
     14 C         137.7516  140.4235  161.1318 C.ar    1  UNL1        0.0309
     15 C         137.9650  139.8667  162.5082 C.ar    1  UNL1        0.1375
     16 F         137.3074  140.5155  163.6900 F       1  UNL1       -0.2045
     17 C         139.0494  138.1042  164.0791 C.3     1  UNL1        0.1014
     18 N         139.7622  138.9205  165.1162 N.3     1  UNL1       -0.2689
     19 C         137.8152  138.6392  166.8133 C.3     1  UNL1        0.0188
     20 C         139.0297  139.3821  166.3412 C.3     1  UNL1        0.0724
     21 C         141.2075  139.2753  164.9283 C.3     1  UNL1        0.0724
     22 C         142.2764  138.2964  165.3148 C.3     1  UNL1        0.0188
     23 C         133.9837  140.6519  156.1504 C.ar    1  UNL1        0.0194
     24 C         132.8000  141.3200  155.5159 C.ar    1  UNL1        0.0029
     25 C         131.4103  140.9124  155.9064 C.ar    1  UNL1        0.0184
     26 C         131.2042  139.8368  156.9314 C.ar    1  UNL1        0.1057
     27 C         132.3879  139.1688  157.5658 C.ar    1  UNL1        0.0184
     28 C         133.7776  139.5764  157.1753 C.ar    1  UNL1        0.0029
     29 S         129.8145  139.4293  157.3219 S.O2    1  UNL1        0.0104
     30 C         128.4247  139.0217  157.7124 C.3     1  UNL1        0.1816
     31 O         130.3739  138.5728  158.4189 O.2     1  UNL1       -0.1686
     32 O         129.2550  140.2858  156.2249 O.2     1  UNL1       -0.1686
@<TRIPOS>BOND
     1    19    20    1
     2    20    18    1
     3    18    21    1
     4    21    22    1
     5    18    17    1
     6    17    10    1
     7    10    11   ar
     8    11    12   ar
     9    12    13   ar
    10    13     1    1
    11     1     2   ar
    12     2     3   ar
    13     3     4   ar
    14     4     5   ar
    15     5     6   ar
    16     6     7   ar
    17     7    23    1
    18    23    24   ar
    19    24    25   ar
    20    25    26   ar
    21    26    29    1
    22    29    30    1
    23    29    31    2
    24    29    32    2
    25    26    27   ar
    26    27    28   ar
    27     7     8   ar
    28     8     9   ar
    29    13    14   ar
    30    14    15   ar
    31    15    16    1
    32    15    10   ar
    33     9     1   ar
    34     8     4   ar
    35    28    23   ar
@<TRIPOS>MOLECULE
*****
 32 35 0 0 0
SMALL
GASTEIGER

@<TRIPOS>ATOM
      1 C         143.4626  135.1694  156.6267 C.ar    1  UNL1        0.1015
      2 C         144.0523  135.8252  155.4134 C.ar    1  UNL1        0.0240
      3 C         144.0352  137.3196  155.2856 C.ar    1  UNL1        0.0404
      4 C         143.4283  138.1582  156.3711 C.ar    1  UNL1        0.1639
      5 N         143.2679  139.6421  156.5220 N.ar    1  UNL1       -0.2234
      6 C         142.5789  139.9033  157.8286 C.ar    1  UNL1        0.1197
      7 C         142.3136  138.5809  158.4852 C.ar    1  UNL1        0.1035
      8 N         142.8385  137.5025  157.5844 N.ar    1  UNL1       -0.2107
      9 N         142.8556  136.0081  157.7122 N.ar    1  UNL1       -0.1638
     10 C         143.5139  130.6860  157.0102 C.ar    1  UNL1        0.0214
     11 C         144.5609  131.5097  157.6996 C.ar    1  UNL1       -0.0006
     12 C         144.5438  133.0042  157.5718 C.ar    1  UNL1        0.0014
     13 C         143.4797  133.6749  156.7546 C.ar    1  UNL1        0.0216
     14 C         142.4327  132.8512  156.0652 C.ar    1  UNL1        0.0309
     15 C         142.4498  131.3568  156.1930 C.ar    1  UNL1        0.1375
     16 F         141.4028  130.5330  155.5036 F       1  UNL1       -0.2045
     17 C         143.5310  129.1916  157.1380 C.3     1  UNL1        0.1014
     18 N         144.0071  128.5530  158.4090 N.3     1  UNL1       -0.2689
     19 C         142.3216  127.3185  159.9535 C.3     1  UNL1        0.0188
     20 C         143.1222  128.5424  159.6203 C.3     1  UNL1        0.0724
     21 C         145.3680  127.9250  158.4688 C.3     1  UNL1        0.0724
     22 C         146.2215  128.0996  159.6900 C.3     1  UNL1        0.0188
     23 C         141.6413  138.3735  159.8099 C.ar    1  UNL1        0.0194
     24 C         140.1572  138.5525  159.9341 C.ar    1  UNL1        0.0029
     25 C         139.4850  138.3451  161.2588 C.ar    1  UNL1        0.0184
     26 C         140.2967  137.9586  162.4595 C.ar    1  UNL1        0.1057
     27 C         141.7808  137.7796  162.3354 C.ar    1  UNL1        0.0184
     28 C         142.4531  137.9870  161.0106 C.ar    1  UNL1        0.0029
     29 S         139.6245  137.7512  163.7843 S.O2    1  UNL1        0.0104
     30 C         138.9522  137.5437  165.1090 C.3     1  UNL1        0.1816
     31 O         140.8520  137.0595  164.2989 O.2     1  UNL1       -0.1686
     32 O         138.3969  138.4428  163.2697 O.2     1  UNL1       -0.1686
@<TRIPOS>BOND
     1    19    20    1
     2    20    18    1
     3    18    21    1
     4    21    22    1
     5    18    17    1
     6    17    10    1
     7    10    11   ar
     8    11    12   ar
     9    12    13   ar
    10    13     1    1
    11     1     2   ar
    12     2     3   ar
    13     3     4   ar
    14     4     5   ar
    15     5     6   ar
    16     6     7   ar
    17     7    23    1
    18    23    24   ar
    19    24    25   ar
    20    25    26   ar
    21    26    29    1
    22    29    30    1
    23    29    31    2
    24    29    32    2
    25    26    27   ar
    26    27    28   ar
    27     7     8   ar
    28     8     9   ar
    29    13    14   ar
    30    14    15   ar
    31    15    16    1
    32    15    10   ar
    33     9     1   ar
    34     8     4   ar
    35    28    23   ar
@<TRIPOS>MOLECULE
*****
 32 35 0 0 0
SMALL
GASTEIGER

@<TRIPOS>ATOM
      1 C         143.5715  135.1871  156.5718 C.ar    1  UNL1        0.1015
      2 C         144.0975  135.8571  155.3372 C.ar    1  UNL1        0.0240
      3 C         143.9786  137.3443  155.1825 C.ar    1  UNL1        0.0404
      4 C         143.3337  138.1616  156.2624 C.ar    1  UNL1        0.1639
      5 N         143.0769  139.6341  156.3888 N.ar    1  UNL1       -0.2234
      6 C         142.3921  139.8740  157.7016 C.ar    1  UNL1        0.1197
      7 C         142.2257  138.5499  158.3865 C.ar    1  UNL1        0.1035
      8 N         142.8077  137.4916  157.4970 N.ar    1  UNL1       -0.2107
      9 N         142.9266  136.0044  157.6518 N.ar    1  UNL1       -0.1638
     10 C         143.9282  130.7253  157.0362 C.ar    1  UNL1        0.0214
     11 C         142.9012  131.3030  156.1081 C.ar    1  UNL1       -0.0006
     12 C         142.7823  132.7903  155.9533 C.ar    1  UNL1        0.0014
     13 C         143.6904  133.6998  156.7266 C.ar    1  UNL1        0.0216
     14 C         144.7175  133.1221  157.6547 C.ar    1  UNL1        0.0309
     15 C         144.8364  131.6349  157.8095 C.ar    1  UNL1        0.1375
     16 F         145.8634  131.0572  158.7376 F       1  UNL1       -0.2045
     17 C         144.0471  129.2381  157.1910 C.3     1  UNL1        0.1014
     18 N         142.9975  128.4762  157.9444 N.3     1  UNL1       -0.2689
     19 C         144.1645  128.2568  160.2553 C.3     1  UNL1        0.0188
     20 C         142.9411  128.5575  159.4412 C.3     1  UNL1        0.0724
     21 C         142.0042  127.6330  157.2012 C.3     1  UNL1        0.0724
     22 C         141.0622  126.7428  157.9564 C.3     1  UNL1        0.0188
     23 C         141.5892  138.3238  159.7258 C.ar    1  UNL1        0.0194
     24 C         140.1081  138.4950  159.8908 C.ar    1  UNL1        0.0029
     25 C         139.4716  138.2689  161.2301 C.ar    1  UNL1        0.0184
     26 C         140.3160  137.8716  162.4044 C.ar    1  UNL1        0.1057
     27 C         141.7971  137.7005  162.2394 C.ar    1  UNL1        0.0184
     28 C         142.4336  137.9266  160.9001 C.ar    1  UNL1        0.0029
     29 S         139.6795  137.6455  163.7437 S.O2    1  UNL1        0.0104
     30 C         139.0429  137.4194  165.0830 C.3     1  UNL1        0.1816
     31 O         138.4234  138.3062  163.2582 O.2     1  UNL1       -0.1686
     32 O         140.9356  136.9849  164.2292 O.2     1  UNL1       -0.1686
@<TRIPOS>BOND
     1    19    20    1
     2    20    18    1
     3    18    21    1
     4    21    22    1
     5    18    17    1
     6    17    10    1
     7    10    11   ar
     8    11    12   ar
     9    12    13   ar
    10    13     1    1
    11     1     2   ar
    12     2     3   ar
    13     3     4   ar
    14     4     5   ar
    15     5     6   ar
    16     6     7   ar
    17     7    23    1
    18    23    24   ar
    19    24    25   ar
    20    25    26   ar
    21    26    29    1
    22    29    30    1
    23    29    31    2
    24    29    32    2
    25    26    27   ar
    26    27    28   ar
    27     7     8   ar
    28     8     9   ar
    29    13    14   ar
    30    14    15   ar
    31    15    16    1
    32    15    10   ar
    33     9     1   ar
    34     8     4   ar
    35    28    23   ar
@<TRIPOS>MOLECULE
*****
 32 35 0 0 0
SMALL
GASTEIGER

@<TRIPOS>ATOM
      1 C         141.0076  143.8616  163.2551 C.ar    1  UNL1        0.1015
      2 C         140.5597  145.2928  163.2825 C.ar    1  UNL1        0.0240
      3 C         140.1713  145.9817  162.0079 C.ar    1  UNL1        0.0404
      4 C         140.2308  145.2393  160.7059 C.ar    1  UNL1        0.1639
      5 N         139.9118  145.6523  159.2995 N.ar    1  UNL1       -0.2234
      6 C         140.1626  144.4762  158.4029 C.ar    1  UNL1        0.1197
      7 C         140.6366  143.3364  159.2552 C.ar    1  UNL1        0.1035
      8 N         140.6788  143.8080  160.6784 N.ar    1  UNL1       -0.2107
      9 N         141.0671  143.1192  161.9530 N.ar    1  UNL1       -0.1638
     10 C         142.1727  141.7948  167.0789 C.ar    1  UNL1        0.0214
     11 C         143.2220  142.4506  166.2310 C.ar    1  UNL1       -0.0006
     12 C         142.8336  143.1396  164.9564 C.ar    1  UNL1        0.0014
     13 C         141.3960  143.1726  164.5297 C.ar    1  UNL1        0.0216
     14 C         140.3467  142.5168  165.3776 C.ar    1  UNL1        0.0309
     15 C         140.7351  141.8279  166.6521 C.ar    1  UNL1        0.1375
     16 F         139.6858  141.1721  167.5000 F       1  UNL1       -0.2045
     17 C         142.5611  141.1059  168.3534 C.3     1  UNL1        0.1014
     18 N         142.0180  141.5922  169.6643 N.3     1  UNL1       -0.2689
     19 C         140.1849  140.0310  170.6401 C.3     1  UNL1        0.0188
     20 C         141.5686  140.6066  170.7020 C.3     1  UNL1        0.0724
     21 C         141.9244  143.0641  169.9377 C.3     1  UNL1        0.0724
     22 C         140.6031  143.7653  169.8247 C.3     1  UNL1        0.0188
     23 C         141.0040  141.9656  158.7694 C.ar    1  UNL1        0.0194
     24 C         140.1371  140.7907  159.1133 C.ar    1  UNL1        0.0029
     25 C         140.5045  139.4199  158.6275 C.ar    1  UNL1        0.0184
     26 C         141.7386  139.2239  157.7978 C.ar    1  UNL1        0.1057
     27 C         142.6054  140.3988  157.4539 C.ar    1  UNL1        0.0184
     28 C         142.2381  141.7696  157.9397 C.ar    1  UNL1        0.0029
     29 S         142.1060  137.8532  157.3121 S.O2    1  UNL1        0.0104
     30 C         142.4733  136.4824  156.8263 C.3     1  UNL1        0.1816
     31 O         140.6579  137.4618  157.3214 O.2     1  UNL1       -0.1686
     32 O         143.5540  138.2445  157.3028 O.2     1  UNL1       -0.1686
@<TRIPOS>BOND
     1    19    20    1
     2    20    18    1
     3    18    21    1
     4    21    22    1
     5    18    17    1
     6    17    10    1
     7    10    11   ar
     8    11    12   ar
     9    12    13   ar
    10    13     1    1
    11     1     2   ar
    12     2     3   ar
    13     3     4   ar
    14     4     5   ar
    15     5     6   ar
    16     6     7   ar
    17     7    23    1
    18    23    24   ar
    19    24    25   ar
    20    25    26   ar
    21    26    29    1
    22    29    30    1
    23    29    31    2
    24    29    32    2
    25    26    27   ar
    26    27    28   ar
    27     7     8   ar
    28     8     9   ar
    29    13    14   ar
    30    14    15   ar
    31    15    16    1
    32    15    10   ar
    33     9     1   ar
    34     8     4   ar
    35    28    23   ar
@<TRIPOS>MOLECULE
*****
 32 35 0 0 0
SMALL
GASTEIGER

@<TRIPOS>ATOM
      1 C         141.9182  138.6923  159.3237 C.ar    1  UNL1        0.1015
      2 C         142.3886  140.0748  158.9813 C.ar    1  UNL1        0.0240
      3 C         143.1651  140.3119  157.7201 C.ar    1  UNL1        0.0404
      4 C         143.4712  139.1665  156.8012 C.ar    1  UNL1        0.1639
      5 N         144.2111  139.0950  155.4983 N.ar    1  UNL1       -0.2234
      6 C         144.1979  137.6683  155.0355 C.ar    1  UNL1        0.1197
      7 C         143.4499  136.8580  156.0524 C.ar    1  UNL1        0.1035
      8 N         143.0008  137.7840  157.1436 N.ar    1  UNL1       -0.2107
      9 N         142.2243  137.5469  158.4049 N.ar    1  UNL1       -0.1638
     10 C         139.5885  137.9808  163.1075 C.ar    1  UNL1        0.0214
     11 C         141.0882  137.9740  163.1376 C.ar    1  UNL1       -0.0006
     12 C         141.8648  138.2112  161.8763 C.ar    1  UNL1        0.0014
     13 C         141.1416  138.4551  160.5850 C.ar    1  UNL1        0.0216
     14 C         139.6419  138.4620  160.5549 C.ar    1  UNL1        0.0309
     15 C         138.8654  138.2248  161.8161 C.ar    1  UNL1        0.1375
     16 F         137.3657  138.2316  161.7860 F       1  UNL1       -0.2045
     17 C         138.8120  137.7437  164.3687 C.3     1  UNL1        0.1014
     18 N         138.4175  138.9025  165.2356 N.3     1  UNL1       -0.2689
     19 C         139.1615  141.3709  165.5573 C.3     1  UNL1        0.0188
     20 C         138.5315  140.3036  164.7123 C.3     1  UNL1        0.0724
     21 C         137.9089  138.6601  166.6258 C.3     1  UNL1        0.0724
     22 C         137.3410  137.3214  166.9939 C.3     1  UNL1        0.0188
     23 C         143.1957  135.3811  155.9891 C.ar    1  UNL1        0.0194
     24 C         142.6878  134.7611  154.7211 C.ar    1  UNL1        0.0029
     25 C         142.4336  133.2842  154.6578 C.ar    1  UNL1        0.0184
     26 C         142.6871  132.4272  155.8624 C.ar    1  UNL1        0.1057
     27 C         143.1950  133.0471  157.1304 C.ar    1  UNL1        0.0184
     28 C         143.4492  134.5241  157.1937 C.ar    1  UNL1        0.0029
     29 S         142.4329  130.9503  155.7991 S.O2    1  UNL1        0.0104
     30 C         142.1786  129.4733  155.7358 C.3     1  UNL1        0.1816
     31 O         143.0250  130.7897  157.1679 O.2     1  UNL1       -0.1686
     32 O         141.8407  131.1108  154.4303 O.2     1  UNL1       -0.1686
@<TRIPOS>BOND
     1    19    20    1
     2    20    18    1
     3    18    21    1
     4    21    22    1
     5    18    17    1
     6    17    10    1
     7    10    11   ar
     8    11    12   ar
     9    12    13   ar
    10    13     1    1
    11     1     2   ar
    12     2     3   ar
    13     3     4   ar
    14     4     5   ar
    15     5     6   ar
    16     6     7   ar
    17     7    23    1
    18    23    24   ar
    19    24    25   ar
    20    25    26   ar
    21    26    29    1
    22    29    30    1
    23    29    31    2
    24    29    32    2
    25    26    27   ar
    26    27    28   ar
    27     7     8   ar
    28     8     9   ar
    29    13    14   ar
    30    14    15   ar
    31    15    16    1
    32    15    10   ar
    33     9     1   ar
    34     8     4   ar
    35    28    23   ar
@<TRIPOS>MOLECULE
*****
 32 35 0 0 0
SMALL
GASTEIGER

@<TRIPOS>ATOM
      1 C         142.5495  138.5493  158.3309 C.ar    1  UNL1        0.1015
      2 C         141.9433  139.6342  157.4911 C.ar    1  UNL1        0.0240
      3 C         141.4194  139.3182  156.1216 C.ar    1  UNL1        0.0404
      4 C         141.5017  137.9172  155.5919 C.ar    1  UNL1        0.1639
      5 N         141.0718  137.3097  154.2895 N.ar    1  UNL1       -0.2234
      6 C         141.4123  135.8493  154.3245 C.ar    1  UNL1        0.1197
      7 C         142.0527  135.5543  155.6485 C.ar    1  UNL1        0.1035
      8 N         142.1079  136.8323  156.4318 N.ar    1  UNL1       -0.2107
      9 N         142.6318  137.1483  157.8013 N.ar    1  UNL1       -0.1638
     10 C         144.1215  139.4973  162.4396 C.ar    1  UNL1        0.0214
     11 C         143.5047  138.1582  162.1631 C.ar    1  UNL1       -0.0006
     12 C         142.9807  137.8422  160.7935 C.ar    1  UNL1        0.0014
     13 C         143.0735  138.8653  159.7005 C.ar    1  UNL1        0.0216
     14 C         143.6903  140.2044  159.9770 C.ar    1  UNL1        0.0309
     15 C         144.2143  140.5204  161.3465 C.ar    1  UNL1        0.1375
     16 F         144.8311  141.8595  161.6229 F       1  UNL1       -0.2045
     17 C         144.6454  139.8133  163.8091 C.3     1  UNL1        0.1014
     18 N         143.7263  140.3763  164.8522 N.3     1  UNL1       -0.2689
     19 C         143.7506  138.2318  166.3186 C.3     1  UNL1        0.0188
     20 C         143.0451  139.4600  165.8250 C.3     1  UNL1        0.0724
     21 C         143.4883  141.8557  164.9226 C.3     1  UNL1        0.0724
     22 C         144.6414  142.8074  164.8007 C.3     1  UNL1        0.0188
     23 C         142.5504  134.2161  156.1084 C.ar    1  UNL1        0.0194
     24 C         141.8372  132.9654  155.6875 C.ar    1  UNL1        0.0029
     25 C         142.3350  131.6273  156.1474 C.ar    1  UNL1        0.0184
     26 C         143.5459  131.5397  157.0283 C.ar    1  UNL1        0.1057
     27 C         144.2590  132.7904  157.4493 C.ar    1  UNL1        0.0184
     28 C         143.7613  134.1285  156.9893 C.ar    1  UNL1        0.0029
     29 S         144.0436  130.2015  157.4883 S.O2    1  UNL1        0.0104
     30 C         144.5413  128.8634  157.9482 C.3     1  UNL1        0.1816
     31 O         142.9105  129.5326  156.7682 O.2     1  UNL1       -0.1686
     32 O         145.1767  130.8705  158.2083 O.2     1  UNL1       -0.1686
@<TRIPOS>BOND
     1    19    20    1
     2    20    18    1
     3    18    21    1
     4    21    22    1
     5    18    17    1
     6    17    10    1
     7    10    11   ar
     8    11    12   ar
     9    12    13   ar
    10    13     1    1
    11     1     2   ar
    12     2     3   ar
    13     3     4   ar
    14     4     5   ar
    15     5     6   ar
    16     6     7   ar
    17     7    23    1
    18    23    24   ar
    19    24    25   ar
    20    25    26   ar
    21    26    29    1
    22    29    30    1
    23    29    31    2
    24    29    32    2
    25    26    27   ar
    26    27    28   ar
    27     7     8   ar
    28     8     9   ar
    29    13    14   ar
    30    14    15   ar
    31    15    16    1
    32    15    10   ar
    33     9     1   ar
    34     8     4   ar
    35    28    23   ar
@<TRIPOS>MOLECULE
*****
 32 35 0 0 0
SMALL
GASTEIGER

@<TRIPOS>ATOM
      1 C         139.8539  143.3828  163.2448 C.ar    1  UNL1        0.1015
      2 C         139.5710  144.8540  163.3182 C.ar    1  UNL1        0.0240
      3 C         139.6259  145.6912  162.0748 C.ar    1  UNL1        0.0404
      4 C         139.9637  145.0572  160.7580 C.ar    1  UNL1        0.1639
      5 N         140.0920  145.6235  159.3749 N.ar    1  UNL1       -0.2234
      6 C         140.4541  144.5022  158.4467 C.ar    1  UNL1        0.1197
      7 C         140.5497  143.2429  159.2562 C.ar    1  UNL1        0.1035
      8 N         140.2466  143.5860  160.6846 N.ar    1  UNL1       -0.2107
      9 N         140.1917  142.7488  161.9280 N.ar    1  UNL1       -0.1638
     10 C         139.6891  140.8710  166.9750 C.ar    1  UNL1        0.0214
     11 C         140.6651  142.0059  166.8775 C.ar    1  UNL1       -0.0006
     12 C         140.7200  142.8432  165.6341 C.ar    1  UNL1        0.0014
     13 C         139.7990  142.5455  164.4882 C.ar    1  UNL1        0.0216
     14 C         138.8230  141.4106  164.5856 C.ar    1  UNL1        0.0309
     15 C         138.7681  140.5733  165.8290 C.ar    1  UNL1        0.1375
     16 F         137.7921  139.4384  165.9264 F       1  UNL1       -0.2045
     17 C         139.6342  140.0337  168.2183 C.3     1  UNL1        0.1014
     18 N         140.2377  140.5438  169.4932 N.3     1  UNL1       -0.2689
     19 C         140.0380  143.0044  170.3030 C.3     1  UNL1        0.0188
     20 C         139.5256  141.5947  170.2923 C.3     1  UNL1        0.0724
     21 C         141.5535  140.0031  169.9690 C.3     1  UNL1        0.0724
     22 C         142.5154  139.4003  168.9885 C.3     1  UNL1        0.0188
     23 C         140.8889  141.8799  158.7297 C.ar    1  UNL1        0.0194
     24 C         142.2226  141.6340  158.0888 C.ar    1  UNL1        0.0029
     25 C         142.5617  140.2710  157.5623 C.ar    1  UNL1        0.0184
     26 C         141.5672  139.1539  157.6766 C.ar    1  UNL1        0.1057
     27 C         140.2335  139.3999  158.3174 C.ar    1  UNL1        0.0184
     28 C         139.8943  140.7629  158.8439 C.ar    1  UNL1        0.0029
     29 S         141.9063  137.7909  157.1500 S.O2    1  UNL1        0.0104
     30 C         142.2455  136.4280  156.6235 C.3     1  UNL1        0.1816
     31 O         143.3673  138.1152  157.2517 O.2     1  UNL1       -0.1686
     32 O         140.4453  137.4667  157.0484 O.2     1  UNL1       -0.1686
@<TRIPOS>BOND
     1    19    20    1
     2    20    18    1
     3    18    21    1
     4    21    22    1
     5    18    17    1
     6    17    10    1
     7    10    11   ar
     8    11    12   ar
     9    12    13   ar
    10    13     1    1
    11     1     2   ar
    12     2     3   ar
    13     3     4   ar
    14     4     5   ar
    15     5     6   ar
    16     6     7   ar
    17     7    23    1
    18    23    24   ar
    19    24    25   ar
    20    25    26   ar
    21    26    29    1
    22    29    30    1
    23    29    31    2
    24    29    32    2
    25    26    27   ar
    26    27    28   ar
    27     7     8   ar
    28     8     9   ar
    29    13    14   ar
    30    14    15   ar
    31    15    16    1
    32    15    10   ar
    33     9     1   ar
    34     8     4   ar
    35    28    23   ar
@<TRIPOS>MOLECULE
*****
 32 35 0 0 0
SMALL
GASTEIGER

@<TRIPOS>ATOM
      1 C         134.6940  140.5906  155.8368 C.ar    1  UNL1        0.1015
      2 C         135.0112  141.2564  154.5306 C.ar    1  UNL1        0.0240
      3 C         136.4149  141.6933  154.2330 C.ar    1  UNL1        0.0404
      4 C         137.5014  141.4646  155.2415 C.ar    1  UNL1        0.1639
      5 N         138.9668  141.7847  155.2282 N.ar    1  UNL1       -0.2234
      6 C         139.5553  141.3168  156.5262 C.ar    1  UNL1        0.1197
      7 C         138.4535  140.7075  157.3417 C.ar    1  UNL1        0.1035
      8 N         137.1842  140.7989  156.5477 N.ar    1  UNL1       -0.2107
      9 N         135.7805  140.3619  156.8453 N.ar    1  UNL1       -0.1638
     10 C         130.4828  139.2796  156.7299 C.ar    1  UNL1        0.0214
     11 C         131.6325  138.3631  157.0268 C.ar    1  UNL1       -0.0006
     12 C         133.0363  138.8002  156.7291 C.ar    1  UNL1        0.0014
     13 C         133.2902  140.1536  156.1345 C.ar    1  UNL1        0.0216
     14 C         132.1405  141.0701  155.8375 C.ar    1  UNL1        0.0309
     15 C         130.7368  140.6331  156.1352 C.ar    1  UNL1        0.1375
     16 F         129.5871  141.5496  155.8382 F       1  UNL1       -0.2045
     17 C         129.0791  138.8427  157.0275 C.3     1  UNL1        0.1014
     18 N         128.2726  139.5659  158.0650 N.3     1  UNL1       -0.2689
     19 C         126.8154  141.7162  158.0141 C.3     1  UNL1        0.0188
     20 C         127.0053  140.2675  157.6752 C.3     1  UNL1        0.0724
     21 C         128.7332  139.5876  159.4924 C.3     1  UNL1        0.0724
     22 C         127.7808  139.2261  160.5934 C.3     1  UNL1        0.0188
     23 C         138.5961  140.1115  158.7108 C.ar    1  UNL1        0.0194
     24 C         139.6120  139.0361  158.9585 C.ar    1  UNL1        0.0029
     25 C         139.7546  138.4401  160.3276 C.ar    1  UNL1        0.0184
     26 C         138.8814  138.9195  161.4490 C.ar    1  UNL1        0.1057
     27 C         137.8655  139.9949  161.2012 C.ar    1  UNL1        0.0184
     28 C         137.7229  140.5909  159.8321 C.ar    1  UNL1        0.0029
     29 S         139.0240  138.3235  162.8181 S.O2    1  UNL1        0.0104
     30 C         139.1665  137.7275  164.1872 C.3     1  UNL1        0.1816
     31 O         140.0158  137.3332  162.2837 O.2     1  UNL1       -0.1686
     32 O         138.0321  139.3138  163.3525 O.2     1  UNL1       -0.1686
@<TRIPOS>BOND
     1    19    20    1
     2    20    18    1
     3    18    21    1
     4    21    22    1
     5    18    17    1
     6    17    10    1
     7    10    11   ar
     8    11    12   ar
     9    12    13   ar
    10    13     1    1
    11     1     2   ar
    12     2     3   ar
    13     3     4   ar
    14     4     5   ar
    15     5     6   ar
    16     6     7   ar
    17     7    23    1
    18    23    24   ar
    19    24    25   ar
    20    25    26   ar
    21    26    29    1
    22    29    30    1
    23    29    31    2
    24    29    32    2
    25    26    27   ar
    26    27    28   ar
    27     7     8   ar
    28     8     9   ar
    29    13    14   ar
    30    14    15   ar
    31    15    16    1
    32    15    10   ar
    33     9     1   ar
    34     8     4   ar
    35    28    23   ar
@<TRIPOS>MOLECULE
*****
 32 35 0 0 0
SMALL
GASTEIGER

@<TRIPOS>ATOM
      1 C         139.0963  139.1705  159.3169 C.ar    1  UNL1        0.1015
      2 C         138.3198  140.3238  158.7541 C.ar    1  UNL1        0.0240
      3 C         138.3019  140.5646  157.2737 C.ar    1  UNL1        0.0404
      4 C         139.0604  139.6521  156.3561 C.ar    1  UNL1        0.1639
      5 N         139.2271  139.6397  154.8654 N.ar    1  UNL1       -0.2234
      6 C         140.1066  138.4786  154.5070 C.ar    1  UNL1        0.1197
      7 C         140.4834  137.7735  155.7762 C.ar    1  UNL1        0.1035
      8 N         139.8368  138.4987  156.9190 N.ar    1  UNL1       -0.2107
      9 N         139.8548  138.2579  158.3994 N.ar    1  UNL1       -0.1638
     10 C         139.1501  138.4479  163.7583 C.ar    1  UNL1        0.0214
     11 C         138.1854  139.4347  163.1706 C.ar    1  UNL1       -0.0006
     12 C         138.1674  139.6756  161.6901 C.ar    1  UNL1        0.0014
     13 C         139.1142  138.9296  160.7974 C.ar    1  UNL1        0.0216
     14 C         140.0790  137.9427  161.3850 C.ar    1  UNL1        0.0309
     15 C         140.0970  137.7019  162.8654 C.ar    1  UNL1        0.1375
     16 F         141.0617  136.7150  163.4531 F       1  UNL1       -0.2045
     17 C         139.1681  138.2070  165.2387 C.3     1  UNL1        0.1014
     18 N         139.9652  139.1073  166.1353 N.3     1  UNL1       -0.2689
     19 C         142.0595  140.2845  165.1463 C.3     1  UNL1        0.0188
     20 C         141.4546  139.1936  165.9793 C.3     1  UNL1        0.0724
     21 C         139.2730  139.9213  167.1880 C.3     1  UNL1        0.0724
     22 C         139.9337  140.1487  168.5154 C.3     1  UNL1        0.0188
     23 C         141.3540  136.5567  155.8837 C.ar    1  UNL1        0.0194
     24 C         142.5963  136.5952  156.7234 C.ar    1  UNL1        0.0029
     25 C         143.4668  135.3784  156.8310 C.ar    1  UNL1        0.0184
     26 C         143.0952  134.1231  156.0988 C.ar    1  UNL1        0.1057
     27 C         141.8528  134.0847  155.2590 C.ar    1  UNL1        0.0184
     28 C         140.9823  135.3014  155.1515 C.ar    1  UNL1        0.0029
     29 S         143.9657  132.9064  156.2063 S.O2    1  UNL1        0.0104
     30 C         144.8363  131.6896  156.3138 C.3     1  UNL1        0.1816
     31 O         144.4519  133.3726  157.5465 O.2     1  UNL1       -0.1686
     32 O         143.4796  132.4401  154.8661 O.2     1  UNL1       -0.1686
@<TRIPOS>BOND
     1    19    20    1
     2    20    18    1
     3    18    21    1
     4    21    22    1
     5    18    17    1
     6    17    10    1
     7    10    11   ar
     8    11    12   ar
     9    12    13   ar
    10    13     1    1
    11     1     2   ar
    12     2     3   ar
    13     3     4   ar
    14     4     5   ar
    15     5     6   ar
    16     6     7   ar
    17     7    23    1
    18    23    24   ar
    19    24    25   ar
    20    25    26   ar
    21    26    29    1
    22    29    30    1
    23    29    31    2
    24    29    32    2
    25    26    27   ar
    26    27    28   ar
    27     7     8   ar
    28     8     9   ar
    29    13    14   ar
    30    14    15   ar
    31    15    16    1
    32    15    10   ar
    33     9     1   ar
    34     8     4   ar
    35    28    23   ar
