@<TRIPOS>MOLECULE
*****
 37 42 0 0 0
SMALL
GASTEIGER

@<TRIPOS>ATOM
      1 C         139.8081  138.0546  161.0684 C.3     1  UNL1        0.2068
      2 C         138.3655  138.1907  161.4560 C.3     1  UNL1        0.0646
      3 C         137.9069  139.3908  162.2302 C.3     1  UNL1        0.0759
      4 C         139.3578  140.0420  166.4398 C.3     1  UNL1        0.0464
      5 C         139.2083  141.2088  165.5091 C.3     1  UNL1        0.0234
      6 C         138.7247  140.9917  164.1059 C.3     1  UNL1        0.0725
      7 N         138.3905  139.6079  163.6334 N.3     1  UNL1       -0.2725
      8 C         138.5399  138.4411  164.5641 C.3     1  UNL1        0.0725
      9 C         139.0235  138.6582  165.9673 C.3     1  UNL1        0.0234
     10 F         144.5906  142.9144  170.3126 F       1  UNL1       -0.2041
     11 C         143.4266  142.2675  169.6223 C.ar    1  UNL1        0.1433
     12 C         143.3382  142.2853  168.1251 C.ar    1  UNL1        0.0299
     13 C         142.1741  141.6384  167.4347 C.ar    1  UNL1        0.0067
     14 C         141.0985  140.9738  168.2416 C.ar    1  UNL1        0.0540
     15 C         139.8414  140.2591  167.8430 C.ar    1  UNL1        0.1003
     16 N         139.1528  139.7996  169.0940 N.ar    1  UNL1       -0.0814
     17 O         139.9843  140.2303  170.2657 O.2     1  UNL1       -0.3536
     18 C         141.1869  140.9560  169.7389 C.ar    1  UNL1        0.1787
     19 C         142.3509  141.6029  170.4292 C.ar    1  UNL1        0.0698
     20 O         140.7905  137.4576  162.0319 O.3     1  UNL1       -0.4754
     21 C         141.9467  138.2749  162.5272 C.ar    1  UNL1        0.1385
     22 C         142.0481  138.6264  163.9819 C.ar    1  UNL1        0.0366
     23 C         143.2042  139.4437  164.4772 C.ar    1  UNL1       -0.0011
     24 C         144.2589  139.9096  163.5177 C.ar    1  UNL1       -0.0215
     25 C         144.1575  139.5582  162.0629 C.ar    1  UNL1       -0.0011
     26 C         143.0013  138.7408  161.5677 C.ar    1  UNL1        0.0366
     27 C         145.4150  140.7270  164.0129 C.3     1  UNL1        0.0361
     28 C         145.4073  142.2173  163.8429 C.3     1  UNL1        0.0900
     29 C         144.1173  142.9352  163.5774 C.ar    1  UNL1        0.2060
     30 N         143.7190  143.5838  162.2848 N.ar    1  UNL1       -0.2121
     31 C         142.3546  144.1801  162.4664 C.ar    1  UNL1        0.1185
     32 C         141.4599  144.9418  161.5341 C.ar    1  UNL1        0.0223
     33 C         140.1203  145.4235  162.0065 C.ar    1  UNL1        0.0017
     34 C         139.6752  145.1434  163.4114 C.ar    1  UNL1        0.0032
     35 C         140.5699  144.3816  164.3437 C.ar    1  UNL1        0.0391
     36 C         141.9096  143.8999  163.8712 C.ar    1  UNL1        0.1644
     37 O         142.9989  143.1306  164.5578 O.2     1  UNL1       -0.4384
@<TRIPOS>BOND
     1    10    11    1
     2    11    12   ar
     3    12    13   ar
     4    13    14   ar
     5    14    15   ar
     6    15     4    1
     7     4     5    1
     8     5     6    1
     9     6     7    1
    10     7     3    1
    11     3     2    1
    12     2     1    1
    13     1    20    1
    14    20    21    1
    15    21    22   ar
    16    22    23   ar
    17    23    24   ar
    18    24    27    1
    19    27    28    1
    20    28    29    1
    21    29    30   ar
    22    30    31   ar
    23    31    32   ar
    24    32    33   ar
    25    33    34   ar
    26    34    35   ar
    27    35    36   ar
    28    36    37   ar
    29    24    25   ar
    30    25    26   ar
    31     7     8    1
    32     8     9    1
    33    15    16   ar
    34    16    17   ar
    35    17    18   ar
    36    18    19   ar
    37    19    11   ar
    38    18    14   ar
    39     9     4    1
    40    26    21   ar
    41    37    29   ar
    42    36    31   ar
@<TRIPOS>MOLECULE
*****
 37 42 0 0 0
SMALL
GASTEIGER

@<TRIPOS>ATOM
      1 C         143.9668  142.9148  160.4471 C.3     1  UNL1        0.2068
      2 C         143.5467  141.5585  159.9633 C.3     1  UNL1        0.0646
      3 C         143.9645  140.3307  160.7170 C.3     1  UNL1        0.0759
      4 C         143.1094  139.9948  165.1222 C.3     1  UNL1        0.0464
      5 C         141.9895  139.8856  164.1303 C.3     1  UNL1        0.0234
      6 C         142.2745  139.9976  162.6619 C.3     1  UNL1        0.0725
      7 N         143.6795  140.2187  162.1853 N.3     1  UNL1       -0.2725
      8 C         144.7994  140.3279  163.1772 C.3     1  UNL1        0.0725
      9 C         144.5144  140.2159  164.6456 C.3     1  UNL1        0.0234
     10 F         139.6859  143.0828  170.5421 F       1  UNL1       -0.2041
     11 C         140.4526  142.3308  169.4949 C.ar    1  UNL1        0.1433
     12 C         140.4675  142.8230  168.0780 C.ar    1  UNL1        0.0299
     13 C         141.2342  142.0710  167.0308 C.ar    1  UNL1        0.0067
     14 C         141.9860  140.8268  167.4005 C.ar    1  UNL1        0.0540
     15 C         142.8244  139.8828  166.5906 C.ar    1  UNL1        0.1003
     16 N         143.3277  138.8071  167.5069 N.ar    1  UNL1       -0.0814
     17 O         142.8004  139.0863  168.8831 O.2     1  UNL1       -0.3536
     18 C         141.9711  140.3346  168.8173 C.ar    1  UNL1        0.1787
     19 C         141.2044  141.0866  169.8645 C.ar    1  UNL1        0.0698
     20 O         143.0023  144.0623  160.3930 O.3     1  UNL1       -0.4754
     21 C         141.9906  144.2439  161.4855 C.ar    1  UNL1        0.1385
     22 C         142.2246  143.6299  162.8340 C.ar    1  UNL1        0.0366
     23 C         141.2130  143.8115  163.9264 C.ar    1  UNL1       -0.0011
     24 C         139.9674  144.6071  163.6705 C.ar    1  UNL1       -0.0215
     25 C         139.7334  145.2211  162.3220 C.ar    1  UNL1       -0.0011
     26 C         140.7451  145.0395  161.2295 C.ar    1  UNL1        0.0366
     27 C         138.9557  144.7887  164.7629 C.3     1  UNL1        0.0361
     28 C         137.8079  143.8312  164.8890 C.3     1  UNL1        0.0900
     29 C         137.9166  142.4502  164.3138 C.ar    1  UNL1        0.2060
     30 N         138.4111  141.2312  165.0348 N.ar    1  UNL1       -0.2121
     31 C         138.3500  140.0732  164.0832 C.ar    1  UNL1        0.1185
     32 C         138.7103  138.6256  164.2395 C.ar    1  UNL1        0.0223
     33 C         138.5383  137.6812  163.0870 C.ar    1  UNL1        0.0017
     34 C         138.0061  138.1844  161.7779 C.ar    1  UNL1        0.0032
     35 C         137.6458  139.6321  161.6216 C.ar    1  UNL1        0.0391
     36 C         137.8178  140.5765  162.7742 C.ar    1  UNL1        0.1644
     37 O         137.5499  142.0455  162.9167 O.2     1  UNL1       -0.4384
@<TRIPOS>BOND
     1    10    11    1
     2    11    12   ar
     3    12    13   ar
     4    13    14   ar
     5    14    15   ar
     6    15     4    1
     7     4     5    1
     8     5     6    1
     9     6     7    1
    10     7     3    1
    11     3     2    1
    12     2     1    1
    13     1    20    1
    14    20    21    1
    15    21    22   ar
    16    22    23   ar
    17    23    24   ar
    18    24    27    1
    19    27    28    1
    20    28    29    1
    21    29    30   ar
    22    30    31   ar
    23    31    32   ar
    24    32    33   ar
    25    33    34   ar
    26    34    35   ar
    27    35    36   ar
    28    36    37   ar
    29    24    25   ar
    30    25    26   ar
    31     7     8    1
    32     8     9    1
    33    15    16   ar
    34    16    17   ar
    35    17    18   ar
    36    18    19   ar
    37    19    11   ar
    38    18    14   ar
    39     9     4    1
    40    26    21   ar
    41    37    29   ar
    42    36    31   ar
@<TRIPOS>MOLECULE
*****
 37 42 0 0 0
SMALL
GASTEIGER

@<TRIPOS>ATOM
      1 C         139.8632  143.9503  159.2248 C.3     1  UNL1        0.2068
      2 C         139.3667  142.5349  159.2368 C.3     1  UNL1        0.0646
      3 C         138.1270  142.1814  160.0037 C.3     1  UNL1        0.0759
      4 C         138.4500  140.6720  164.2308 C.3     1  UNL1        0.0464
      5 C         137.7869  141.9885  163.9530 C.3     1  UNL1        0.0234
      6 C         137.6793  142.4917  162.5440 C.3     1  UNL1        0.0725
      7 N         138.2347  141.6783  161.4127 N.3     1  UNL1       -0.2725
      8 C         138.8977  140.3618  161.6904 C.3     1  UNL1        0.0725
      9 C         139.0053  139.8587  163.0994 C.3     1  UNL1        0.0234
     10 F         141.5680  141.8660  170.5144 F       1  UNL1       -0.2041
     11 C         140.8448  141.4999  169.2522 C.ar    1  UNL1        0.1433
     12 C         141.0395  142.3201  168.0115 C.ar    1  UNL1        0.0299
     13 C         140.3163  141.9540  166.7494 C.ar    1  UNL1        0.0067
     14 C         139.3985  140.7678  166.7279 C.ar    1  UNL1        0.0540
     15 C         138.5576  140.1689  165.6397 C.ar    1  UNL1        0.1003
     16 N         137.8432  138.9786  166.2079 N.ar    1  UNL1       -0.0814
     17 O         138.2426  138.8418  167.6473 O.2     1  UNL1       -0.3536
     18 C         139.2039  139.9477  167.9686 C.ar    1  UNL1        0.1787
     19 C         139.9270  140.3137  169.2308 C.ar    1  UNL1        0.0698
     20 O         139.8250  144.7692  160.4809 O.3     1  UNL1       -0.4754
     21 C         140.8781  144.5796  161.5321 C.ar    1  UNL1        0.1385
     22 C         142.2560  144.1336  161.1414 C.ar    1  UNL1        0.0366
     23 C         143.3091  143.9440  162.1926 C.ar    1  UNL1       -0.0011
     24 C         142.9843  144.2004  163.6344 C.ar    1  UNL1       -0.0215
     25 C         141.6064  144.6464  164.0251 C.ar    1  UNL1       -0.0011
     26 C         140.5533  144.8360  162.9739 C.ar    1  UNL1        0.0366
     27 C         144.0374  144.0108  164.6856 C.3     1  UNL1        0.0361
     28 C         144.6960  142.6738  164.8549 C.3     1  UNL1        0.0900
     29 C         143.9256  141.4175  164.5756 C.ar    1  UNL1        0.2060
     30 N         143.1879  140.5921  165.5879 N.ar    1  UNL1       -0.2121
     31 C         142.5639  139.4304  164.8729 C.ar    1  UNL1        0.1185
     32 C         141.7207  138.2887  165.3581 C.ar    1  UNL1        0.0223
     33 C         141.2295  137.2544  164.3893 C.ar    1  UNL1        0.0017
     34 C         141.5815  137.3617  162.9351 C.ar    1  UNL1        0.0032
     35 C         142.4248  138.5034  162.4499 C.ar    1  UNL1        0.0391
     36 C         142.9160  139.5377  163.4188 C.ar    1  UNL1        0.1644
     37 O         143.7575  140.7658  163.2350 O.2     1  UNL1       -0.4384
@<TRIPOS>BOND
     1    10    11    1
     2    11    12   ar
     3    12    13   ar
     4    13    14   ar
     5    14    15   ar
     6    15     4    1
     7     4     5    1
     8     5     6    1
     9     6     7    1
    10     7     3    1
    11     3     2    1
    12     2     1    1
    13     1    20    1
    14    20    21    1
    15    21    22   ar
    16    22    23   ar
    17    23    24   ar
    18    24    27    1
    19    27    28    1
    20    28    29    1
    21    29    30   ar
    22    30    31   ar
    23    31    32   ar
    24    32    33   ar
    25    33    34   ar
    26    34    35   ar
    27    35    36   ar
    28    36    37   ar
    29    24    25   ar
    30    25    26   ar
    31     7     8    1
    32     8     9    1
    33    15    16   ar
    34    16    17   ar
    35    17    18   ar
    36    18    19   ar
    37    19    11   ar
    38    18    14   ar
    39     9     4    1
    40    26    21   ar
    41    37    29   ar
    42    36    31   ar
@<TRIPOS>MOLECULE
*****
 37 42 0 0 0
SMALL
GASTEIGER

@<TRIPOS>ATOM
      1 C         142.7455  137.8077  160.8209 C.3     1  UNL1        0.2068
      2 C         141.5615  138.3611  160.0848 C.3     1  UNL1        0.0646
      3 C         140.2065  138.3505  160.7281 C.3     1  UNL1        0.0759
      4 C         139.7955  139.2227  165.1236 C.3     1  UNL1        0.0464
      5 C         140.3756  140.2568  164.2048 C.3     1  UNL1        0.0234
      6 C         140.5126  139.9661  162.7397 C.3     1  UNL1        0.0725
      7 N         140.0695  138.6413  162.1932 N.3     1  UNL1       -0.2725
      8 C         139.4894  137.6072  163.1121 C.3     1  UNL1        0.0725
      9 C         139.3524  137.8980  164.5772 C.3     1  UNL1        0.0234
     10 F         142.9953  142.3294  170.6682 F       1  UNL1       -0.2041
     11 C         142.2126  141.6390  169.5908 C.ar    1  UNL1        0.1433
     12 C         142.7513  141.5815  168.1921 C.ar    1  UNL1        0.0299
     13 C         141.9687  140.8910  167.1147 C.ar    1  UNL1        0.0067
     14 C         140.6474  140.2580  167.4361 C.ar    1  UNL1        0.0540
     15 C         139.6585  139.5135  166.5888 C.ar    1  UNL1        0.1003
     16 N         138.5087  139.1108  167.4639 N.ar    1  UNL1       -0.0814
     17 O         138.7869  139.6064  168.8520 O.2     1  UNL1       -0.3536
     18 C         140.1087  140.3154  168.8348 C.ar    1  UNL1        0.1787
     19 C         140.8913  141.0059  169.9122 C.ar    1  UNL1        0.0698
     20 O         144.0383  138.5682  160.8416 O.3     1  UNL1       -0.4754
     21 C         144.2301  139.6949  161.8131 C.ar    1  UNL1        0.1385
     22 C         144.5189  141.0781  161.3099 C.ar    1  UNL1        0.0366
     23 C         144.7108  142.2048  162.2814 C.ar    1  UNL1       -0.0011
     24 C         144.6139  141.9482  163.7560 C.ar    1  UNL1       -0.0215
     25 C         144.3251  140.5649  164.2593 C.ar    1  UNL1       -0.0011
     26 C         144.1332  139.4383  163.2878 C.ar    1  UNL1        0.0366
     27 C         144.8058  143.0748  164.7276 C.3     1  UNL1        0.0361
     28 C         144.0231  144.3444  164.5679 C.3     1  UNL1        0.0900
     29 C         142.5398  144.2888  164.3514 C.ar    1  UNL1        0.2060
     30 N         141.7866  144.9471  163.2336 N.ar    1  UNL1       -0.2121
     31 C         140.3306  144.6303  163.4060 C.ar    1  UNL1        0.1185
     32 C         139.1194  145.0092  162.6064 C.ar    1  UNL1        0.0223
     33 C         137.7616  144.5340  163.0311 C.ar    1  UNL1        0.0017
     34 C         137.6148  143.6799  164.2554 C.ar    1  UNL1        0.0032
     35 C         138.8260  143.3010  165.0550 C.ar    1  UNL1        0.0391
     36 C         140.1839  143.7762  164.6304 C.ar    1  UNL1        0.1644
     37 O         141.5492  143.5651  165.2146 O.2     1  UNL1       -0.4384
@<TRIPOS>BOND
     1    10    11    1
     2    11    12   ar
     3    12    13   ar
     4    13    14   ar
     5    14    15   ar
     6    15     4    1
     7     4     5    1
     8     5     6    1
     9     6     7    1
    10     7     3    1
    11     3     2    1
    12     2     1    1
    13     1    20    1
    14    20    21    1
    15    21    22   ar
    16    22    23   ar
    17    23    24   ar
    18    24    27    1
    19    27    28    1
    20    28    29    1
    21    29    30   ar
    22    30    31   ar
    23    31    32   ar
    24    32    33   ar
    25    33    34   ar
    26    34    35   ar
    27    35    36   ar
    28    36    37   ar
    29    24    25   ar
    30    25    26   ar
    31     7     8    1
    32     8     9    1
    33    15    16   ar
    34    16    17   ar
    35    17    18   ar
    36    18    19   ar
    37    19    11   ar
    38    18    14   ar
    39     9     4    1
    40    26    21   ar
    41    37    29   ar
    42    36    31   ar
@<TRIPOS>MOLECULE
*****
 37 42 0 0 0
SMALL
GASTEIGER

@<TRIPOS>ATOM
      1 C         139.7472  139.8794  168.5053 C.3     1  UNL1        0.2068
      2 C         139.8028  141.3309  168.8795 C.3     1  UNL1        0.0646
      3 C         140.9581  142.1769  168.4327 C.3     1  UNL1        0.0759
      4 C         141.3402  143.3603  164.1079 C.3     1  UNL1        0.0464
      5 C         142.4661  142.6424  164.7914 C.3     1  UNL1        0.0234
      6 C         142.3387  142.2480  166.2329 C.3     1  UNL1        0.0725
      7 N         141.0855  142.5713  166.9911 N.3     1  UNL1       -0.2725
      8 C         139.9596  143.2891  166.3076 C.3     1  UNL1        0.0725
      9 C         140.0870  143.6836  164.8660 C.3     1  UNL1        0.0234
     10 F         138.2949  142.7279  157.7080 F       1  UNL1       -0.2041
     11 C         139.0393  142.9427  158.9924 C.ar    1  UNL1        0.1433
     12 C         138.5307  142.3330  160.2650 C.ar    1  UNL1        0.0299
     13 C         139.2751  142.5478  161.5495 C.ar    1  UNL1        0.0067
     14 C         140.5280  143.3724  161.5613 C.ar    1  UNL1        0.0540
     15 C         141.4676  143.7547  162.6663 C.ar    1  UNL1        0.1003
     16 N         142.5569  144.6007  162.0766 N.ar    1  UNL1       -0.0814
     17 O         142.2906  144.7413  160.6072 O.2     1  UNL1       -0.3536
     18 C         141.0366  143.9821  160.2887 C.ar    1  UNL1        0.1787
     19 C         140.2923  143.7673  159.0043 C.ar    1  UNL1        0.0698
     20 O         138.5393  139.3312  167.8048 O.3     1  UNL1       -0.4754
     21 C         138.5627  139.1257  166.3192 C.ar    1  UNL1        0.1385
     22 C         138.8189  137.7597  165.7550 C.ar    1  UNL1        0.0366
     23 C         138.8423  137.5542  164.2693 C.ar    1  UNL1       -0.0011
     24 C         138.6095  138.7147  163.3479 C.ar    1  UNL1       -0.0215
     25 C         138.3532  140.0808  163.9121 C.ar    1  UNL1       -0.0011
     26 C         138.3299  140.2862  165.3978 C.ar    1  UNL1        0.0366
     27 C         138.6329  138.5092  161.8622 C.3     1  UNL1        0.0361
     28 C         139.9333  138.2489  161.1615 C.3     1  UNL1        0.0900
     29 C         141.1918  138.9043  161.6480 C.ar    1  UNL1        0.2060
     30 N         141.8813  140.0729  161.0083 N.ar    1  UNL1       -0.2121
     31 C         143.0974  140.3970  161.8246 C.ar    1  UNL1        0.1185
     32 C         144.1563  141.4487  161.6739 C.ar    1  UNL1        0.0223
     33 C         145.2771  141.5322  162.6671 C.ar    1  UNL1        0.0017
     34 C         145.3392  140.5640  163.8112 C.ar    1  UNL1        0.0032
     35 C         144.2803  139.5123  163.9619 C.ar    1  UNL1        0.0391
     36 C         143.1594  139.4288  162.9686 C.ar    1  UNL1        0.1644
     37 O         141.9817  138.5063  162.8594 O.2     1  UNL1       -0.4384
@<TRIPOS>BOND
     1    10    11    1
     2    11    12   ar
     3    12    13   ar
     4    13    14   ar
     5    14    15   ar
     6    15     4    1
     7     4     5    1
     8     5     6    1
     9     6     7    1
    10     7     3    1
    11     3     2    1
    12     2     1    1
    13     1    20    1
    14    20    21    1
    15    21    22   ar
    16    22    23   ar
    17    23    24   ar
    18    24    27    1
    19    27    28    1
    20    28    29    1
    21    29    30   ar
    22    30    31   ar
    23    31    32   ar
    24    32    33   ar
    25    33    34   ar
    26    34    35   ar
    27    35    36   ar
    28    36    37   ar
    29    24    25   ar
    30    25    26   ar
    31     7     8    1
    32     8     9    1
    33    15    16   ar
    34    16    17   ar
    35    17    18   ar
    36    18    19   ar
    37    19    11   ar
    38    18    14   ar
    39     9     4    1
    40    26    21   ar
    41    37    29   ar
    42    36    31   ar
@<TRIPOS>MOLECULE
*****
 37 42 0 0 0
SMALL
GASTEIGER

@<TRIPOS>ATOM
      1 C         138.5945  139.8639  159.2926 C.3     1  UNL1        0.2068
      2 C         139.3432  139.3779  160.4981 C.3     1  UNL1        0.0646
      3 C         138.6745  138.4573  161.4756 C.3     1  UNL1        0.0759
      4 C         138.8316  139.3557  165.8822 C.3     1  UNL1        0.0464
      5 C         138.5300  140.4517  164.9036 C.3     1  UNL1        0.0234
      6 C         138.4776  140.1523  163.4348 C.3     1  UNL1        0.0725
      7 N         138.7269  138.7568  162.9444 N.3     1  UNL1       -0.2725
      8 C         139.0285  137.6607  163.9230 C.3     1  UNL1        0.0725
      9 C         139.0809  137.9602  165.3919 C.3     1  UNL1        0.0234
     10 F         142.3378  143.0502  170.8511 F       1  UNL1       -0.2041
     11 C         141.5133  142.2215  169.9111 C.ar    1  UNL1        0.1433
     12 C         141.8262  142.2166  168.4441 C.ar    1  UNL1        0.0299
     13 C         141.0018  141.3879  167.5042 C.ar    1  UNL1        0.0067
     14 C         139.8645  140.5640  168.0311 C.ar    1  UNL1        0.0540
     15 C         138.8840  139.6551  167.3511 C.ar    1  UNL1        0.1003
     16 N         137.9651  139.0983  168.3978 N.ar    1  UNL1       -0.0814
     17 O         138.3777  139.6630  169.7247 O.2     1  UNL1       -0.3536
     18 C         139.5516  140.5689  169.4981 C.ar    1  UNL1        0.1787
     19 C         140.3760  141.3977  170.4381 C.ar    1  UNL1        0.0698
     20 O         138.2027  141.3078  159.1848 O.3     1  UNL1       -0.4754
     21 C         138.8155  142.3219  160.1046 C.ar    1  UNL1        0.1385
     22 C         140.1086  142.9857  159.7342 C.ar    1  UNL1        0.0366
     23 C         140.7215  143.9998  160.6539 C.ar    1  UNL1       -0.0011
     24 C         140.0412  144.3501  161.9441 C.ar    1  UNL1       -0.0215
     25 C         138.7480  143.6863  162.3145 C.ar    1  UNL1       -0.0011
     26 C         138.1352  142.6722  161.3947 C.ar    1  UNL1        0.0366
     27 C         140.6540  145.3642  162.8638 C.3     1  UNL1        0.0361
     28 C         142.0161  145.1239  163.4443 C.3     1  UNL1        0.0900
     29 C         142.4998  143.7217  163.6671 C.ar    1  UNL1        0.2060
     30 N         143.9279  143.2645  163.6254 N.ar    1  UNL1       -0.2121
     31 C         143.9511  141.7906  163.9032 C.ar    1  UNL1        0.1185
     32 C         145.0768  140.8030  163.9894 C.ar    1  UNL1        0.0223
     33 C         144.7888  139.3618  164.2889 C.ar    1  UNL1        0.0017
     34 C         143.3751  138.9080  164.5023 C.ar    1  UNL1        0.0032
     35 C         142.2494  139.8955  164.4161 C.ar    1  UNL1        0.0391
     36 C         142.5374  141.3368  164.1165 C.ar    1  UNL1        0.1644
     37 O         141.6405  142.5303  163.9706 O.2     1  UNL1       -0.4384
@<TRIPOS>BOND
     1    10    11    1
     2    11    12   ar
     3    12    13   ar
     4    13    14   ar
     5    14    15   ar
     6    15     4    1
     7     4     5    1
     8     5     6    1
     9     6     7    1
    10     7     3    1
    11     3     2    1
    12     2     1    1
    13     1    20    1
    14    20    21    1
    15    21    22   ar
    16    22    23   ar
    17    23    24   ar
    18    24    27    1
    19    27    28    1
    20    28    29    1
    21    29    30   ar
    22    30    31   ar
    23    31    32   ar
    24    32    33   ar
    25    33    34   ar
    26    34    35   ar
    27    35    36   ar
    28    36    37   ar
    29    24    25   ar
    30    25    26   ar
    31     7     8    1
    32     8     9    1
    33    15    16   ar
    34    16    17   ar
    35    17    18   ar
    36    18    19   ar
    37    19    11   ar
    38    18    14   ar
    39     9     4    1
    40    26    21   ar
    41    37    29   ar
    42    36    31   ar
@<TRIPOS>MOLECULE
*****
 37 42 0 0 0
SMALL
GASTEIGER

@<TRIPOS>ATOM
      1 C         138.4837  142.4843  160.1696 C.3     1  UNL1        0.2068
      2 C         139.7597  143.2365  160.4068 C.3     1  UNL1        0.0646
      3 C         139.8537  144.2155  161.5394 C.3     1  UNL1        0.0759
      4 C         141.4533  142.8906  165.5315 C.3     1  UNL1        0.0464
      5 C         140.1473  143.6242  165.4527 C.3     1  UNL1        0.0234
      6 C         139.6141  144.0658  164.1220 C.3     1  UNL1        0.0725
      7 N         140.3869  143.7739  162.8701 N.3     1  UNL1       -0.2725
      8 C         141.6929  143.0403  162.9488 C.3     1  UNL1        0.0725
      9 C         142.2261  142.5987  164.2795 C.3     1  UNL1        0.0234
     10 F         139.8054  139.3178  171.4603 F       1  UNL1       -0.2041
     11 C         140.2842  140.0943  170.2696 C.ar    1  UNL1        0.1433
     12 C         139.3731  140.3073  169.0973 C.ar    1  UNL1        0.0299
     13 C         139.8519  141.0838  167.9066 C.ar    1  UNL1        0.0067
     14 C         141.2418  141.6474  167.8882 C.ar    1  UNL1        0.0540
     15 C         141.9864  142.4490  166.8621 C.ar    1  UNL1        0.1003
     16 N         143.3578  142.7316  167.4003 N.ar    1  UNL1       -0.0814
     17 O         143.4607  142.1045  168.7591 O.2     1  UNL1       -0.3536
     18 C         142.1530  141.4345  169.0606 C.ar    1  UNL1        0.1787
     19 C         141.6741  140.6579  170.2513 C.ar    1  UNL1        0.0698
     20 O         137.6300  142.0705  161.3315 O.3     1  UNL1       -0.4754
     21 C         137.9930  140.8563  162.1340 C.ar    1  UNL1        0.1385
     22 C         138.1523  139.5285  161.4547 C.ar    1  UNL1        0.0366
     23 C         138.5153  138.3143  162.2572 C.ar    1  UNL1       -0.0011
     24 C         138.7189  138.4280  163.7389 C.ar    1  UNL1       -0.0215
     25 C         138.5596  139.7559  164.4182 C.ar    1  UNL1       -0.0011
     26 C         138.1966  140.9701  163.6157 C.ar    1  UNL1        0.0366
     27 C         139.0819  137.2139  164.5414 C.3     1  UNL1        0.0361
     28 C         140.5126  136.7713  164.6266 C.3     1  UNL1        0.0900
     29 C         141.6153  137.7276  164.2810 C.ar    1  UNL1        0.2060
     30 N         142.6404  138.2720  165.2313 N.ar    1  UNL1       -0.2121
     31 C         143.5452  139.1882  164.4619 C.ar    1  UNL1        0.1185
     32 C         144.7332  140.0055  164.8754 C.ar    1  UNL1        0.0223
     33 C         145.4552  140.8445  163.8633 C.ar    1  UNL1        0.0017
     34 C         144.9894  140.8664  162.4376 C.ar    1  UNL1        0.0032
     35 C         143.8015  140.0492  162.0241 C.ar    1  UNL1        0.0391
     36 C         143.0794  139.2101  163.0363 C.ar    1  UNL1        0.1644
     37 O         141.8867  138.3074  162.9245 O.2     1  UNL1       -0.4384
@<TRIPOS>BOND
     1    10    11    1
     2    11    12   ar
     3    12    13   ar
     4    13    14   ar
     5    14    15   ar
     6    15     4    1
     7     4     5    1
     8     5     6    1
     9     6     7    1
    10     7     3    1
    11     3     2    1
    12     2     1    1
    13     1    20    1
    14    20    21    1
    15    21    22   ar
    16    22    23   ar
    17    23    24   ar
    18    24    27    1
    19    27    28    1
    20    28    29    1
    21    29    30   ar
    22    30    31   ar
    23    31    32   ar
    24    32    33   ar
    25    33    34   ar
    26    34    35   ar
    27    35    36   ar
    28    36    37   ar
    29    24    25   ar
    30    25    26   ar
    31     7     8    1
    32     8     9    1
    33    15    16   ar
    34    16    17   ar
    35    17    18   ar
    36    18    19   ar
    37    19    11   ar
    38    18    14   ar
    39     9     4    1
    40    26    21   ar
    41    37    29   ar
    42    36    31   ar
@<TRIPOS>MOLECULE
*****
 37 42 0 0 0
SMALL
GASTEIGER

@<TRIPOS>ATOM
      1 C         142.5220  138.5909  157.9344 C.3     1  UNL1        0.2068
      2 C         141.1518  139.1959  158.0158 C.3     1  UNL1        0.0646
      3 C         140.2220  138.8005  159.1245 C.3     1  UNL1        0.0759
      4 C         141.2970  139.7171  163.3970 C.3     1  UNL1        0.0464
      5 C         140.9846  140.8343  162.4460 C.3     1  UNL1        0.0234
      6 C         140.6263  140.5287  161.0218 C.3     1  UNL1        0.0725
      7 N         140.5804  139.1061  160.5486 N.3     1  UNL1       -0.2725
      8 C         140.8927  137.9890  161.4997 C.3     1  UNL1        0.0725
      9 C         141.2511  138.2945  162.9238 C.3     1  UNL1        0.0234
     10 F         138.6999  140.0277  170.0145 F       1  UNL1       -0.2041
     11 C         139.3756  140.0040  168.6755 C.ar    1  UNL1        0.1433
     12 C         138.5999  139.6195  167.4506 C.ar    1  UNL1        0.0299
     13 C         139.2756  139.5957  166.1117 C.ar    1  UNL1        0.0067
     14 C         140.7270  139.9565  165.9975 C.ar    1  UNL1        0.0540
     15 C         141.6554  140.0227  164.8212 C.ar    1  UNL1        0.1003
     16 N         143.0049  140.4481  165.3190 N.ar    1  UNL1       -0.0814
     17 O         142.9106  140.6448  166.8030 O.2     1  UNL1       -0.3536
     18 C         141.5028  140.3409  167.2224 C.ar    1  UNL1        0.1787
     19 C         140.8271  140.3647  168.5614 C.ar    1  UNL1        0.0698
     20 O         143.7356  139.4681  158.0219 O.3     1  UNL1       -0.4754
     21 C         144.0075  140.2496  159.2730 C.ar    1  UNL1        0.1385
     22 C         144.1973  139.5342  160.5777 C.ar    1  UNL1        0.0366
     23 C         144.4692  140.3157  161.8288 C.ar    1  UNL1       -0.0011
     24 C         144.5513  141.8125  161.7752 C.ar    1  UNL1       -0.0215
     25 C         144.3615  142.5279  160.4705 C.ar    1  UNL1       -0.0011
     26 C         144.0896  141.7464  159.2194 C.ar    1  UNL1        0.0366
     27 C         144.8232  142.5940  163.0263 C.3     1  UNL1        0.0361
     28 C         144.1445  143.9130  163.2492 C.3     1  UNL1        0.0900
     29 C         142.6571  143.9692  163.4346 C.ar    1  UNL1        0.2060
     30 N         141.9109  143.6192  164.6880 N.ar    1  UNL1       -0.2121
     31 C         140.4473  143.8189  164.4272 C.ar    1  UNL1        0.1185
     32 C         139.2383  143.6309  165.2950 C.ar    1  UNL1        0.0223
     33 C         137.8710  143.9163  164.7483 C.ar    1  UNL1        0.0017
     34 C         137.7125  144.3896  163.3338 C.ar    1  UNL1        0.0032
     35 C         138.9215  144.5776  162.4660 C.ar    1  UNL1        0.0391
     36 C         140.2889  144.2923  163.0127 C.ar    1  UNL1        0.1644
     37 O         141.6545  144.3851  162.3993 O.2     1  UNL1       -0.4384
@<TRIPOS>BOND
     1    10    11    1
     2    11    12   ar
     3    12    13   ar
     4    13    14   ar
     5    14    15   ar
     6    15     4    1
     7     4     5    1
     8     5     6    1
     9     6     7    1
    10     7     3    1
    11     3     2    1
    12     2     1    1
    13     1    20    1
    14    20    21    1
    15    21    22   ar
    16    22    23   ar
    17    23    24   ar
    18    24    27    1
    19    27    28    1
    20    28    29    1
    21    29    30   ar
    22    30    31   ar
    23    31    32   ar
    24    32    33   ar
    25    33    34   ar
    26    34    35   ar
    27    35    36   ar
    28    36    37   ar
    29    24    25   ar
    30    25    26   ar
    31     7     8    1
    32     8     9    1
    33    15    16   ar
    34    16    17   ar
    35    17    18   ar
    36    18    19   ar
    37    19    11   ar
    38    18    14   ar
    39     9     4    1
    40    26    21   ar
    41    37    29   ar
    42    36    31   ar
@<TRIPOS>MOLECULE
*****
 37 42 0 0 0
SMALL
GASTEIGER

@<TRIPOS>ATOM
      1 C         142.3096  137.3905  158.0996 C.3     1  UNL1        0.2068
      2 C         141.4074  137.5784  156.9161 C.3     1  UNL1        0.0646
      3 C         140.1843  138.4387  157.0345 C.3     1  UNL1        0.0759
      4 C         140.2299  142.0593  159.7064 C.3     1  UNL1        0.0464
      5 C         140.7383  142.1595  158.2987 C.3     1  UNL1        0.0234
      6 C         140.7231  140.9526  157.4081 C.3     1  UNL1        0.0725
      7 N         140.1995  139.6455  157.9251 N.3     1  UNL1       -0.2725
      8 C         139.6911  139.5453  159.3327 C.3     1  UNL1        0.0725
      9 C         139.7064  140.7522  160.2234 C.3     1  UNL1        0.0234
     10 F         143.9578  145.3935  164.7678 F       1  UNL1       -0.2041
     11 C         143.0746  144.7990  163.7112 C.ar    1  UNL1        0.1433
     12 C         143.4627  143.5116  163.0465 C.ar    1  UNL1        0.0299
     13 C         142.5795  142.9171  161.9898 C.ar    1  UNL1        0.0067
     14 C         141.3082  143.6099  161.5978 C.ar    1  UNL1        0.0540
     15 C         140.2452  143.2662  160.5970 C.ar    1  UNL1        0.1003
     16 N         139.2000  144.3411  160.6432 N.ar    1  UNL1       -0.0814
     17 O         139.6171  145.3493  161.6725 O.2     1  UNL1       -0.3536
     18 C         140.9201  144.8974  162.2626 C.ar    1  UNL1        0.1787
     19 C         141.8033  145.4919  163.3192 C.ar    1  UNL1        0.0698
     20 O         143.1823  138.5187  158.5640 O.3     1  UNL1       -0.4754
     21 C         143.3718  138.7653  160.0314 C.ar    1  UNL1        0.1385
     22 C         142.6446  137.9193  161.0341 C.ar    1  UNL1        0.0366
     23 C         142.8341  138.1659  162.5015 C.ar    1  UNL1       -0.0011
     24 C         143.7507  139.2585  162.9661 C.ar    1  UNL1       -0.0215
     25 C         144.4779  140.1046  161.9634 C.ar    1  UNL1       -0.0011
     26 C         144.2884  139.8580  160.4960 C.ar    1  UNL1        0.0366
     27 C         143.9402  139.5052  164.4335 C.3     1  UNL1        0.0361
     28 C         142.7517  139.5385  165.3480 C.3     1  UNL1        0.0900
     29 C         141.6664  140.5509  165.1309 C.ar    1  UNL1        0.2060
     30 N         141.5206  141.8563  165.8554 N.ar    1  UNL1       -0.2121
     31 C         140.3004  142.5479  165.3234 C.ar    1  UNL1        0.1185
     32 C         139.6647  143.8637  165.6619 C.ar    1  UNL1        0.0223
     33 C         138.4207  144.3015  164.9473 C.ar    1  UNL1        0.0017
     34 C         137.8123  143.4235  163.8941 C.ar    1  UNL1        0.0032
     35 C         138.4481  142.1078  163.5556 C.ar    1  UNL1        0.0391
     36 C         139.6921  141.6700  164.2702 C.ar    1  UNL1        0.1644
     37 O         140.5363  140.4358  164.1513 O.2     1  UNL1       -0.4384
@<TRIPOS>BOND
     1    10    11    1
     2    11    12   ar
     3    12    13   ar
     4    13    14   ar
     5    14    15   ar
     6    15     4    1
     7     4     5    1
     8     5     6    1
     9     6     7    1
    10     7     3    1
    11     3     2    1
    12     2     1    1
    13     1    20    1
    14    20    21    1
    15    21    22   ar
    16    22    23   ar
    17    23    24   ar
    18    24    27    1
    19    27    28    1
    20    28    29    1
    21    29    30   ar
    22    30    31   ar
    23    31    32   ar
    24    32    33   ar
    25    33    34   ar
    26    34    35   ar
    27    35    36   ar
    28    36    37   ar
    29    24    25   ar
    30    25    26   ar
    31     7     8    1
    32     8     9    1
    33    15    16   ar
    34    16    17   ar
    35    17    18   ar
    36    18    19   ar
    37    19    11   ar
    38    18    14   ar
    39     9     4    1
    40    26    21   ar
    41    37    29   ar
    42    36    31   ar
