@<TRIPOS>MOLECULE
*****
 32 36 0 0 0
SMALL
GASTEIGER

@<TRIPOS>ATOM
      1 C         142.8119  138.9372  158.3020 C.ar    1  UNL1        0.1233
      2 C         142.3083  137.5243  158.3092 C.ar    1  UNL1        0.1180
      3 N         142.9258  136.8062  157.1459 N.ar    1  UNL1       -0.2233
      4 N         143.8110  137.7754  156.4199 N.ar    1  UNL1       -0.0634
      5 N         143.7406  139.0924  157.1343 N.ar    1  UNL1       -0.1287
      6 C         142.6980  135.3710  156.7741 C.3     1  UNL1        0.1831
      7 C         143.5962  134.3744  157.4450 C.3     1  UNL1        0.0385
      8 C         143.6203  132.8829  157.2880 C.3     1  UNL1        0.0301
      9 C         142.7523  132.0194  156.4213 C.ar    1  UNL1       -0.0086
     10 C         143.1084  130.5691  156.5611 C.ar    1  UNL1       -0.0030
     11 C         142.3578  129.5337  155.7772 C.ar    1  UNL1       -0.0002
     12 C         141.2512  129.9486  154.8535 C.ar    1  UNL1        0.0013
     13 C         140.8952  131.3990  154.7137 C.ar    1  UNL1        0.0144
     14 C         141.6457  132.4344  155.4976 C.ar    1  UNL1        0.0463
     15 N         141.1339  133.8153  155.2124 N.am    1  UNL1       -0.2826
     16 C         141.6021  135.1222  155.7805 C.2     1  UNL1        0.2486
     17 O         140.8790  136.3414  155.2901 O.2     1  UNL1       -0.2727
     18 H         140.3925  133.8712  154.5671 H       1  UNL1        0.1549
     19 C         142.8805  141.2291  161.5412 C.ar    1  UNL1        0.1547
     20 C         143.2421  140.1592  160.5541 C.ar    1  UNL1        0.0400
     21 C         142.4503  140.0071  159.2892 C.ar    1  UNL1        0.0241
     22 C         141.2969  140.9250  159.0115 C.ar    1  UNL1        0.0033
     23 C         140.9353  141.9949  159.9987 C.ar    1  UNL1        0.0207
     24 C         141.7270  142.1469  161.2635 C.ar    1  UNL1        0.0994
     25 N         141.3654  143.2168  162.2507 N.ar    1  UNL1       -0.2839
     26 C         142.1346  144.4795  162.5038 C.ar    1  UNL1        0.1826
     27 N         141.4156  145.2549  163.5676 N.ar    1  UNL1       -0.2280
     28 C         140.2020  144.4716  163.9720 C.ar    1  UNL1        0.0786
     29 C         139.1961  144.8767  165.0083 C.3     1  UNL1        0.0538
     30 C         140.1710  143.2120  163.1581 C.ar    1  UNL1        0.0963
     31 C         145.1038  141.8251  162.7460 C.3     1  UNL1        0.2525
     32 O         143.6723  141.3811  162.8061 O.3     1  UNL1       -0.4700
@<TRIPOS>BOND
     1    31    32    1
     2    32    19    1
     3    19    20   ar
     4    20    21   ar
     5    21     1    1
     6     1     2   ar
     7     2     3   ar
     8     3     6    1
     9     6     7    1
    10     7     8    1
    11     8     9    1
    12     9    10   ar
    13    10    11   ar
    14    11    12   ar
    15    12    13   ar
    16    13    14   ar
    17    14    15    1
    18    15    16   am
    19    16    17    2
    20     3     4   ar
    21     4     5   ar
    22    21    22   ar
    23    22    23   ar
    24    23    24   ar
    25    24    25    1
    26    25    26   ar
    27    26    27   ar
    28    27    28   ar
    29    28    29    1
    30    28    30   ar
    31    24    19   ar
    32    30    25   ar
    33     5     1   ar
    34    16     6    1
    35    14     9   ar
    36    15    18    1
@<TRIPOS>MOLECULE
*****
 32 36 0 0 0
SMALL
GASTEIGER

@<TRIPOS>ATOM
      1 C         143.0848  138.2186  159.8062 C.ar    1  UNL1        0.1233
      2 C         142.7788  136.8840  159.1934 C.ar    1  UNL1        0.1180
      3 N         142.9459  137.0067  157.7079 N.ar    1  UNL1       -0.2233
      4 N         143.3552  138.4171  157.4024 N.ar    1  UNL1       -0.0634
      5 N         143.4411  139.1661  158.6992 N.ar    1  UNL1       -0.1287
      6 C         142.7399  135.9114  156.7040 C.3     1  UNL1        0.1831
      7 C         143.7262  134.7826  156.7608 C.3     1  UNL1        0.0385
      8 C         143.7909  133.5533  155.9037 C.3     1  UNL1        0.0301
      9 C         142.8856  133.1491  154.7781 C.ar    1  UNL1       -0.0086
     10 C         143.3041  131.8379  154.1819 C.ar    1  UNL1       -0.0030
     11 C         142.5288  131.2520  153.0393 C.ar    1  UNL1       -0.0002
     12 C         141.3349  131.9773  152.4929 C.ar    1  UNL1        0.0013
     13 C         140.9164  133.2886  153.0890 C.ar    1  UNL1        0.0144
     14 C         141.6917  133.8745  154.2316 C.ar    1  UNL1        0.0463
     15 N         141.1085  135.1831  154.6758 N.am    1  UNL1       -0.2826
     16 C         141.5749  136.0897  155.7761 C.2     1  UNL1        0.2486
     17 O         140.7700  137.3396  155.9747 O.2     1  UNL1       -0.2727
     18 H         140.3145  135.4873  154.1795 H       1  UNL1        0.1549
     19 C         144.1733  139.5436  163.3851 C.ar    1  UNL1        0.1547
     20 C         144.2162  139.2144  161.9223 C.ar    1  UNL1        0.0400
     21 C         143.0420  138.5478  161.2690 C.ar    1  UNL1        0.0241
     22 C         141.8251  138.2103  162.0783 C.ar    1  UNL1        0.0033
     23 C         141.7823  138.5395  163.5411 C.ar    1  UNL1        0.0207
     24 C         142.9564  139.2061  164.1945 C.ar    1  UNL1        0.0994
     25 N         142.9136  139.5353  165.6574 N.ar    1  UNL1       -0.2839
     26 C         143.1760  138.5805  166.7841 C.ar    1  UNL1        0.1826
     27 N         143.0254  139.3322  168.0733 N.ar    1  UNL1       -0.2280
     28 C         142.6700  140.7516  167.7435 C.ar    1  UNL1        0.0786
     29 C         142.4264  141.8523  168.7330 C.3     1  UNL1        0.0538
     30 C         142.6009  140.8772  166.2503 C.ar    1  UNL1        0.0963
     31 C         145.6354  141.6571  163.7668 C.3     1  UNL1        0.2525
     32 O         145.3475  140.2103  164.0385 O.3     1  UNL1       -0.4700
@<TRIPOS>BOND
     1    31    32    1
     2    32    19    1
     3    19    20   ar
     4    20    21   ar
     5    21     1    1
     6     1     2   ar
     7     2     3   ar
     8     3     6    1
     9     6     7    1
    10     7     8    1
    11     8     9    1
    12     9    10   ar
    13    10    11   ar
    14    11    12   ar
    15    12    13   ar
    16    13    14   ar
    17    14    15    1
    18    15    16   am
    19    16    17    2
    20     3     4   ar
    21     4     5   ar
    22    21    22   ar
    23    22    23   ar
    24    23    24   ar
    25    24    25    1
    26    25    26   ar
    27    26    27   ar
    28    27    28   ar
    29    28    29    1
    30    28    30   ar
    31    24    19   ar
    32    30    25   ar
    33     5     1   ar
    34    16     6    1
    35    14     9   ar
    36    15    18    1
@<TRIPOS>MOLECULE
*****
 32 36 0 0 0
SMALL
GASTEIGER

@<TRIPOS>ATOM
      1 C         142.4555  139.0867  158.2276 C.ar    1  UNL1        0.1233
      2 C         141.9586  137.6722  158.1797 C.ar    1  UNL1        0.1180
      3 N         142.7618  136.9332  157.1508 N.ar    1  UNL1       -0.2233
      4 N         143.7552  137.8910  156.5627 N.ar    1  UNL1       -0.0634
      5 N         143.5660  139.2219  157.2282 N.ar    1  UNL1       -0.1287
      6 C         142.6000  135.4899  156.7757 C.3     1  UNL1        0.1831
      7 C         143.5190  134.5298  157.4713 C.3     1  UNL1        0.0385
      8 C         143.6055  133.0402  157.3176 C.3     1  UNL1        0.0301
      9 C         142.7945  132.1428  156.4305 C.ar    1  UNL1       -0.0086
     10 C         143.2034  130.7076  156.5820 C.ar    1  UNL1       -0.0030
     11 C         142.5144  129.6430  155.7809 C.ar    1  UNL1       -0.0002
     12 C         141.4166  130.0135  154.8283 C.ar    1  UNL1        0.0013
     13 C         141.0078  131.4487  154.6767 C.ar    1  UNL1        0.0144
     14 C         141.6968  132.5134  155.4778 C.ar    1  UNL1        0.0463
     15 N         141.1388  133.8729  155.1771 N.am    1  UNL1       -0.2826
     16 C         141.5407  135.1976  155.7547 C.2     1  UNL1        0.2486
     17 O         140.7834  136.3872  155.2437 O.2     1  UNL1       -0.2727
     18 H         140.4127  133.8992  154.5128 H       1  UNL1        0.1549
     19 C         139.9360  141.4015  160.2383 C.ar    1  UNL1        0.1547
     20 C         140.4578  140.3134  159.3475 C.ar    1  UNL1        0.0400
     21 C         141.9337  140.1749  159.1184 C.ar    1  UNL1        0.0241
     22 C         142.8878  141.1245  159.7801 C.ar    1  UNL1        0.0033
     23 C         142.3660  142.2127  160.6709 C.ar    1  UNL1        0.0207
     24 C         140.8901  142.3512  160.9000 C.ar    1  UNL1        0.0994
     25 N         140.3683  143.4394  161.7909 N.ar    1  UNL1       -0.2839
     26 C         140.2430  144.8900  161.4302 C.ar    1  UNL1        0.1826
     27 N         139.6775  145.6151  162.6152 N.ar    1  UNL1       -0.2280
     28 C         139.4533  144.6128  163.7083 C.ar    1  UNL1        0.0786
     29 C         138.8993  144.9039  165.0715 C.3     1  UNL1        0.0538
     30 C         139.8802  143.2681  163.1989 C.ar    1  UNL1        0.0963
     31 C         137.7675  140.6485  161.4551 C.3     1  UNL1        0.2525
     32 O         138.4601  141.5401  160.4675 O.3     1  UNL1       -0.4700
@<TRIPOS>BOND
     1    31    32    1
     2    32    19    1
     3    19    20   ar
     4    20    21   ar
     5    21     1    1
     6     1     2   ar
     7     2     3   ar
     8     3     6    1
     9     6     7    1
    10     7     8    1
    11     8     9    1
    12     9    10   ar
    13    10    11   ar
    14    11    12   ar
    15    12    13   ar
    16    13    14   ar
    17    14    15    1
    18    15    16   am
    19    16    17    2
    20     3     4   ar
    21     4     5   ar
    22    21    22   ar
    23    22    23   ar
    24    23    24   ar
    25    24    25    1
    26    25    26   ar
    27    26    27   ar
    28    27    28   ar
    29    28    29    1
    30    28    30   ar
    31    24    19   ar
    32    30    25   ar
    33     5     1   ar
    34    16     6    1
    35    14     9   ar
    36    15    18    1
@<TRIPOS>MOLECULE
*****
 32 36 0 0 0
SMALL
GASTEIGER

@<TRIPOS>ATOM
      1 C         141.0778  139.3666  160.2245 C.ar    1  UNL1        0.1233
      2 C         141.1488  138.8638  161.6360 C.ar    1  UNL1        0.1180
      3 N         140.9903  140.0385  162.5551 N.ar    1  UNL1       -0.2233
      4 N         140.8214  141.2674  161.7118 N.ar    1  UNL1       -0.0634
      5 N         140.8755  140.8522  160.2714 N.ar    1  UNL1       -0.1287
      6 C         140.9992  139.9924  164.0544 C.3     1  UNL1        0.1831
      7 C         142.3272  139.7026  164.6887 C.3     1  UNL1        0.0385
      8 C         142.6629  139.5911  166.1464 C.3     1  UNL1        0.0301
      9 C         141.7535  139.7418  167.3298 C.ar    1  UNL1       -0.0086
     10 C         142.4960  139.5521  168.6192 C.ar    1  UNL1       -0.0030
     11 C         141.7689  139.6620  169.9266 C.ar    1  UNL1       -0.0002
     12 C         140.2992  139.9614  169.9445 C.ar    1  UNL1        0.0013
     13 C         139.5567  140.1511  168.6551 C.ar    1  UNL1        0.0144
     14 C         140.2838  140.0412  167.3477 C.ar    1  UNL1        0.0463
     15 N         139.3606  140.2640  166.1867 N.am    1  UNL1       -0.2826
     16 C         139.6789  140.2423  164.7210 C.2     1  UNL1        0.2486
     17 O         138.5243  140.5051  163.8003 O.2     1  UNL1       -0.2727
     18 H         138.4214  140.4489  166.4171 H       1  UNL1        0.1549
     19 C         140.0913  137.4526  156.8910 C.ar    1  UNL1        0.1547
     20 C         139.9795  138.2885  158.1313 C.ar    1  UNL1        0.0400
     21 C         141.1895  138.5307  158.9841 C.ar    1  UNL1        0.0241
     22 C         142.5113  137.9369  158.5964 C.ar    1  UNL1        0.0033
     23 C         142.6231  137.1010  157.3560 C.ar    1  UNL1        0.0207
     24 C         141.4131  136.8588  156.5033 C.ar    1  UNL1        0.0994
     25 N         141.5249  136.0228  155.2628 N.ar    1  UNL1       -0.2839
     26 C         141.8044  136.5309  153.8794 C.ar    1  UNL1        0.1826
     27 N         141.8290  135.3541  152.9496 N.ar    1  UNL1       -0.2280
     28 C         141.5648  134.1187  153.7583 C.ar    1  UNL1        0.0786
     29 C         141.4999  132.7163  153.2302 C.3     1  UNL1        0.0538
     30 C         141.3768  134.5320  155.1879 C.ar    1  UNL1        0.0963
     31 C         138.5480  138.1566  154.9230 C.3     1  UNL1        0.2525
     32 O         138.8813  137.2104  156.0382 O.3     1  UNL1       -0.4700
@<TRIPOS>BOND
     1    31    32    1
     2    32    19    1
     3    19    20   ar
     4    20    21   ar
     5    21     1    1
     6     1     2   ar
     7     2     3   ar
     8     3     6    1
     9     6     7    1
    10     7     8    1
    11     8     9    1
    12     9    10   ar
    13    10    11   ar
    14    11    12   ar
    15    12    13   ar
    16    13    14   ar
    17    14    15    1
    18    15    16   am
    19    16    17    2
    20     3     4   ar
    21     4     5   ar
    22    21    22   ar
    23    22    23   ar
    24    23    24   ar
    25    24    25    1
    26    25    26   ar
    27    26    27   ar
    28    27    28   ar
    29    28    29    1
    30    28    30   ar
    31    24    19   ar
    32    30    25   ar
    33     5     1   ar
    34    16     6    1
    35    14     9   ar
    36    15    18    1
@<TRIPOS>MOLECULE
*****
 32 36 0 0 0
SMALL
GASTEIGER

@<TRIPOS>ATOM
      1 C         140.5850  144.4032  162.5589 C.ar    1  UNL1        0.1233
      2 C         140.9071  143.9496  161.1659 C.ar    1  UNL1        0.1180
      3 N         140.2826  144.9189  160.2066 N.ar    1  UNL1       -0.2233
      4 N         139.5744  145.9717  161.0068 N.ar    1  UNL1       -0.0634
      5 N         139.7613  145.6529  162.4605 N.ar    1  UNL1       -0.1287
      6 C         140.3537  144.8481  158.7100 C.3     1  UNL1        0.1831
      7 C         141.3570  145.7558  158.0624 C.3     1  UNL1        0.0385
      8 C         141.6665  145.9184  156.6037 C.3     1  UNL1        0.0301
      9 C         141.0491  145.2136  155.4323 C.ar    1  UNL1       -0.0086
     10 C         141.6504  145.6730  154.1372 C.ar    1  UNL1       -0.0030
     11 C         141.1723  145.0908  152.8401 C.ar    1  UNL1       -0.0002
     12 C         140.0929  144.0492  152.8382 C.ar    1  UNL1        0.0013
     13 C         139.4916  143.5898  154.1333 C.ar    1  UNL1        0.0144
     14 C         139.9697  144.1720  155.4304 C.ar    1  UNL1        0.0463
     15 N         139.2412  143.5780  156.5993 N.am    1  UNL1       -0.2826
     16 C         139.4120  143.8788  158.0589 C.2     1  UNL1        0.2486
     17 O         138.5238  143.1087  158.9904 O.2     1  UNL1       -0.2727
     18 H         138.5609  142.9011  156.3795 H       1  UNL1        0.1549
     19 C         142.7953  142.4167  165.1890 C.ar    1  UNL1        0.1547
     20 C         142.3688  143.0939  163.9205 C.ar    1  UNL1        0.0400
     21 C         141.0116  143.7259  163.8275 C.ar    1  UNL1        0.0241
     22 C         140.0810  143.6806  165.0030 C.ar    1  UNL1        0.0033
     23 C         140.5077  143.0034  166.2716 C.ar    1  UNL1        0.0207
     24 C         141.8648  142.3714  166.3646 C.ar    1  UNL1        0.0994
     25 N         142.2914  141.6941  167.6333 N.ar    1  UNL1       -0.2839
     26 C         143.0577  142.3277  168.7564 C.ar    1  UNL1        0.1826
     27 N         143.2664  141.2895  169.8186 N.ar    1  UNL1       -0.2280
     28 C         142.6292  140.0143  169.3522 C.ar    1  UNL1        0.0786
     29 C         142.5997  138.7168  170.1043 C.3     1  UNL1        0.0538
     30 C         142.0265  140.2644  168.0015 C.ar    1  UNL1        0.0963
     31 C         145.1126  141.8974  164.1351 C.3     1  UNL1        0.2525
     32 O         144.1525  141.7847  165.2820 O.3     1  UNL1       -0.4700
@<TRIPOS>BOND
     1    31    32    1
     2    32    19    1
     3    19    20   ar
     4    20    21   ar
     5    21     1    1
     6     1     2   ar
     7     2     3   ar
     8     3     6    1
     9     6     7    1
    10     7     8    1
    11     8     9    1
    12     9    10   ar
    13    10    11   ar
    14    11    12   ar
    15    12    13   ar
    16    13    14   ar
    17    14    15    1
    18    15    16   am
    19    16    17    2
    20     3     4   ar
    21     4     5   ar
    22    21    22   ar
    23    22    23   ar
    24    23    24   ar
    25    24    25    1
    26    25    26   ar
    27    26    27   ar
    28    27    28   ar
    29    28    29    1
    30    28    30   ar
    31    24    19   ar
    32    30    25   ar
    33     5     1   ar
    34    16     6    1
    35    14     9   ar
    36    15    18    1
@<TRIPOS>MOLECULE
*****
 32 36 0 0 0
SMALL
GASTEIGER

@<TRIPOS>ATOM
      1 C         142.8142  138.9967  161.0451 C.ar    1  UNL1        0.1233
      2 C         142.1411  138.0557  160.0904 C.ar    1  UNL1        0.1180
      3 N         142.7917  138.2133  158.7481 N.ar    1  UNL1       -0.2233
      4 N         143.8669  139.2517  158.8732 N.ar    1  UNL1       -0.0634
      5 N         143.8809  139.7359  160.2928 N.ar    1  UNL1       -0.1287
      6 C         142.4305  137.4640  157.4998 C.3     1  UNL1        0.1831
      7 C         143.1045  136.1361  157.3198 C.3     1  UNL1        0.0385
      8 C         142.9575  135.1580  156.1922 C.3     1  UNL1        0.0301
      9 C         142.1003  135.2661  154.9660 C.ar    1  UNL1       -0.0086
     10 C         142.2485  134.0607  154.0856 C.ar    1  UNL1       -0.0030
     11 C         141.4747  133.9684  152.8040 C.ar    1  UNL1       -0.0002
     12 C         140.5528  135.0815  152.4026 C.ar    1  UNL1        0.0013
     13 C         140.4046  136.2869  153.2830 C.ar    1  UNL1        0.0144
     14 C         141.1783  136.3792  154.5646 C.ar    1  UNL1        0.0463
     15 N         140.8859  137.6590  155.2904 N.am    1  UNL1       -0.2826
     16 C         141.4431  138.1418  156.5966 C.2     1  UNL1        0.2486
     17 O         140.9475  139.4792  157.0611 O.2     1  UNL1       -0.2727
     18 H         140.2432  138.2618  154.8513 H       1  UNL1        0.1549
     19 C         142.1931  140.7028  164.5740 C.ar    1  UNL1        0.1547
     20 C         142.5279  140.5312  163.1220 C.ar    1  UNL1        0.0400
     21 C         142.4794  139.1684  162.4972 C.ar    1  UNL1        0.0241
     22 C         142.0962  137.9773  163.3244 C.ar    1  UNL1        0.0033
     23 C         141.7614  138.1490  164.7764 C.ar    1  UNL1        0.0207
     24 C         141.8099  139.5117  165.4012 C.ar    1  UNL1        0.0994
     25 N         141.4751  139.6833  166.8534 N.ar    1  UNL1       -0.2839
     26 C         142.4238  139.5142  168.0029 C.ar    1  UNL1        0.1826
     27 N         141.6678  139.7806  169.2707 N.ar    1  UNL1       -0.2280
     28 C         140.2520  140.1143  168.9049 C.ar    1  UNL1        0.0786
     29 C         139.1488  140.4493  169.8645 C.3     1  UNL1        0.0538
     30 C         140.1328  140.0542  167.4108 C.ar    1  UNL1        0.0963
     31 C         143.4642  142.5035  165.9496 C.3     1  UNL1        0.2525
     32 O         142.2416  142.0656  165.1989 O.3     1  UNL1       -0.4700
@<TRIPOS>BOND
     1    31    32    1
     2    32    19    1
     3    19    20   ar
     4    20    21   ar
     5    21     1    1
     6     1     2   ar
     7     2     3   ar
     8     3     6    1
     9     6     7    1
    10     7     8    1
    11     8     9    1
    12     9    10   ar
    13    10    11   ar
    14    11    12   ar
    15    12    13   ar
    16    13    14   ar
    17    14    15    1
    18    15    16   am
    19    16    17    2
    20     3     4   ar
    21     4     5   ar
    22    21    22   ar
    23    22    23   ar
    24    23    24   ar
    25    24    25    1
    26    25    26   ar
    27    26    27   ar
    28    27    28   ar
    29    28    29    1
    30    28    30   ar
    31    24    19   ar
    32    30    25   ar
    33     5     1   ar
    34    16     6    1
    35    14     9   ar
    36    15    18    1
@<TRIPOS>MOLECULE
*****
 32 36 0 0 0
SMALL
GASTEIGER

@<TRIPOS>ATOM
      1 C         138.5500  140.5826  161.6192 C.ar    1  UNL1        0.1233
      2 C         139.4124  140.4460  162.8389 C.ar    1  UNL1        0.1180
      3 N         138.6946  141.0889  163.9885 N.ar    1  UNL1       -0.2233
      4 N         137.3886  141.6228  163.4792 N.ar    1  UNL1       -0.0634
      5 N         137.2992  141.3099  162.0150 N.ar    1  UNL1       -0.1287
      6 C         139.1950  141.1816  165.3995 C.3     1  UNL1        0.1831
      7 C         139.9071  142.4530  165.7553 C.3     1  UNL1        0.0385
      8 C         140.5172  142.8473  167.0676 C.3     1  UNL1        0.0301
      9 C         140.5659  142.0679  168.3483 C.ar    1  UNL1       -0.0086
     10 C         141.2739  142.8314  169.4280 C.ar    1  UNL1       -0.0030
     11 C         141.4326  142.2284  170.7922 C.ar    1  UNL1       -0.0002
     12 C         140.8832  140.8620  171.0768 C.ar    1  UNL1        0.0013
     13 C         140.1751  140.0985  169.9972 C.ar    1  UNL1        0.0144
     14 C         140.0165  140.7014  168.6329 C.ar    1  UNL1        0.0463
     15 N         139.2827  139.7770  167.7071 N.am    1  UNL1       -0.2826
     16 C         138.9171  139.9906  166.2681 C.2     1  UNL1        0.2486
     17 O         138.1756  138.8645  165.6109 O.2     1  UNL1       -0.2727
     18 H         139.0043  138.9162  168.0953 H       1  UNL1        0.1549
     19 C         138.5693  140.2046  157.6687 C.ar    1  UNL1        0.1547
     20 C         138.2389  140.7072  159.0428 C.ar    1  UNL1        0.0400
     21 C         138.8803  140.0801  160.2450 C.ar    1  UNL1        0.0241
     22 C         139.8521  138.9505  160.0731 C.ar    1  UNL1        0.0033
     23 C         140.1825  138.4480  158.6990 C.ar    1  UNL1        0.0207
     24 C         139.5411  139.0750  157.4968 C.ar    1  UNL1        0.0994
     25 N         139.8716  138.5725  156.1226 N.ar    1  UNL1       -0.2839
     26 C         141.1112  138.8927  155.3411 C.ar    1  UNL1        0.1826
     27 N         141.0261  138.1796  154.0242 N.ar    1  UNL1       -0.2280
     28 C         139.7339  137.4186  153.9918 C.ar    1  UNL1        0.0786
     29 C         139.2416  136.5647  152.8611 C.3     1  UNL1        0.0538
     30 C         139.0204  137.6614  155.2887 C.ar    1  UNL1        0.0963
     31 C         136.5096  141.3145  156.5392 C.3     1  UNL1        0.2525
     32 O         137.9279  140.8317  156.4665 O.3     1  UNL1       -0.4700
@<TRIPOS>BOND
     1    31    32    1
     2    32    19    1
     3    19    20   ar
     4    20    21   ar
     5    21     1    1
     6     1     2   ar
     7     2     3   ar
     8     3     6    1
     9     6     7    1
    10     7     8    1
    11     8     9    1
    12     9    10   ar
    13    10    11   ar
    14    11    12   ar
    15    12    13   ar
    16    13    14   ar
    17    14    15    1
    18    15    16   am
    19    16    17    2
    20     3     4   ar
    21     4     5   ar
    22    21    22   ar
    23    22    23   ar
    24    23    24   ar
    25    24    25    1
    26    25    26   ar
    27    26    27   ar
    28    27    28   ar
    29    28    29    1
    30    28    30   ar
    31    24    19   ar
    32    30    25   ar
    33     5     1   ar
    34    16     6    1
    35    14     9   ar
    36    15    18    1
@<TRIPOS>MOLECULE
*****
 32 36 0 0 0
SMALL
GASTEIGER

@<TRIPOS>ATOM
      1 C         142.0196  138.6086  161.7341 C.ar    1  UNL1        0.1233
      2 C         142.1331  139.4337  162.9816 C.ar    1  UNL1        0.1180
      3 N         141.5761  138.6316  164.1202 N.ar    1  UNL1       -0.2233
      4 N         141.1185  137.3107  163.5764 N.ar    1  UNL1       -0.0634
      5 N         141.3925  137.2964  162.1017 N.ar    1  UNL1       -0.1287
      6 C         141.4917  139.0728  165.5513 C.3     1  UNL1        0.1831
      7 C         140.1593  139.6032  165.9913 C.3     1  UNL1        0.0385
      8 C         139.7571  140.1171  167.3419 C.3     1  UNL1        0.0301
      9 C         140.5877  140.2276  168.5861 C.ar    1  UNL1       -0.0086
     10 C         139.7955  140.7978  169.7250 C.ar    1  UNL1       -0.0030
     11 C         140.4415  140.9919  171.0648 C.ar    1  UNL1       -0.0002
     12 C         141.8796  140.6158  171.2656 C.ar    1  UNL1        0.0013
     13 C         142.6718  140.0456  170.1267 C.ar    1  UNL1        0.0144
     14 C         142.0258  139.8515  168.7869 C.ar    1  UNL1        0.0463
     15 N         142.9884  139.2720  167.7931 N.am    1  UNL1       -0.2826
     16 C         142.7508  138.9254  166.3532 C.2     1  UNL1        0.2486
     17 O         143.9278  138.3562  165.6179 O.2     1  UNL1       -0.2727
     18 H         143.8963  139.0957  168.1306 H       1  UNL1        0.1549
     19 C         143.0577  138.4065  157.9090 C.ar    1  UNL1        0.1547
     20 C         142.6208  137.9922  159.2828 C.ar    1  UNL1        0.0400
     21 C         142.4565  139.0228  160.3602 C.ar    1  UNL1        0.0241
     22 C         142.7291  140.4677  160.0638 C.ar    1  UNL1        0.0033
     23 C         143.1660  140.8820  158.6899 C.ar    1  UNL1        0.0207
     24 C         143.3303  139.8514  157.6126 C.ar    1  UNL1        0.0994
     25 N         143.7672  140.2658  156.2387 N.ar    1  UNL1       -0.2839
     26 C         142.8653  140.6820  155.1147 C.ar    1  UNL1        0.1826
     27 N         143.7234  141.0101  153.9290 N.ar    1  UNL1       -0.2280
     28 C         145.1557  140.7966  154.3201 C.ar    1  UNL1        0.0786
     29 C         146.3510  141.0064  153.4386 C.3     1  UNL1        0.0538
     30 C         145.1828  140.3366  155.7476 C.ar    1  UNL1        0.0963
     31 C         143.0103  135.9241  157.1439 C.3     1  UNL1        0.2525
     32 O         143.2219  137.3759  156.8316 O.3     1  UNL1       -0.4700
@<TRIPOS>BOND
     1    31    32    1
     2    32    19    1
     3    19    20   ar
     4    20    21   ar
     5    21     1    1
     6     1     2   ar
     7     2     3   ar
     8     3     6    1
     9     6     7    1
    10     7     8    1
    11     8     9    1
    12     9    10   ar
    13    10    11   ar
    14    11    12   ar
    15    12    13   ar
    16    13    14   ar
    17    14    15    1
    18    15    16   am
    19    16    17    2
    20     3     4   ar
    21     4     5   ar
    22    21    22   ar
    23    22    23   ar
    24    23    24   ar
    25    24    25    1
    26    25    26   ar
    27    26    27   ar
    28    27    28   ar
    29    28    29    1
    30    28    30   ar
    31    24    19   ar
    32    30    25   ar
    33     5     1   ar
    34    16     6    1
    35    14     9   ar
    36    15    18    1
@<TRIPOS>MOLECULE
*****
 32 36 0 0 0
SMALL
GASTEIGER

@<TRIPOS>ATOM
      1 C         140.1509  141.9463  160.5764 C.ar    1  UNL1        0.1233
      2 C         140.4094  142.1683  162.0372 C.ar    1  UNL1        0.1180
      3 N         140.3897  140.8328  162.7197 N.ar    1  UNL1       -0.2233
      4 N         140.1190  139.7853  161.6808 N.ar    1  UNL1       -0.0634
      5 N         139.9714  140.4734  160.3561 N.ar    1  UNL1       -0.1287
      6 C         140.6032  140.5877  164.1841 C.3     1  UNL1        0.1831
      7 C         141.9859  140.1594  164.5775 C.3     1  UNL1        0.0385
      8 C         142.5126  139.8410  165.9454 C.3     1  UNL1        0.0301
      9 C         141.7868  139.8722  167.2578 C.ar    1  UNL1       -0.0086
     10 C         142.6876  139.4813  168.3916 C.ar    1  UNL1       -0.0030
     11 C         142.1566  139.4478  169.7940 C.ar    1  UNL1       -0.0002
     12 C         140.7248  139.8052  170.0626 C.ar    1  UNL1        0.0013
     13 C         139.8240  140.1962  168.9287 C.ar    1  UNL1        0.0144
     14 C         140.3550  140.2296  167.5263 C.ar    1  UNL1        0.0463
     15 N         139.2954  140.6441  166.5488 N.am    1  UNL1       -0.2826
     16 C         139.4058  140.8035  165.0614 C.2     1  UNL1        0.2486
     17 O         138.1532  141.2356  164.3584 O.2     1  UNL1       -0.2727
     18 H         138.4103  140.8370  166.9345 H       1  UNL1        0.1549
     19 C         139.3053  143.8045  157.1733 C.ar    1  UNL1        0.1547
     20 C         139.3724  142.7405  158.2284 C.ar    1  UNL1        0.0400
     21 C         140.0837  143.0102  159.5212 C.ar    1  UNL1        0.0241
     22 C         140.7277  144.3439  159.7588 C.ar    1  UNL1        0.0033
     23 C         140.6605  145.4079  158.7037 C.ar    1  UNL1        0.0207
     24 C         139.9493  145.1382  157.4109 C.ar    1  UNL1        0.0994
     25 N         139.8821  146.2022  156.3557 N.ar    1  UNL1       -0.2839
     26 C         138.9998  147.4151  156.3814 C.ar    1  UNL1        0.1826
     27 N         139.2579  148.2026  155.1312 N.ar    1  UNL1       -0.2280
     28 C         140.2996  147.4765  154.3327 C.ar    1  UNL1        0.0786
     29 C         140.8576  147.9105  153.0097 C.3     1  UNL1        0.0538
     30 C         140.6854  146.2402  155.0895 C.ar    1  UNL1        0.0963
     31 C         137.0976  143.6164  155.8165 C.3     1  UNL1        0.2525
     32 O         138.5940  143.5348  155.8804 O.3     1  UNL1       -0.4700
@<TRIPOS>BOND
     1    31    32    1
     2    32    19    1
     3    19    20   ar
     4    20    21   ar
     5    21     1    1
     6     1     2   ar
     7     2     3   ar
     8     3     6    1
     9     6     7    1
    10     7     8    1
    11     8     9    1
    12     9    10   ar
    13    10    11   ar
    14    11    12   ar
    15    12    13   ar
    16    13    14   ar
    17    14    15    1
    18    15    16   am
    19    16    17    2
    20     3     4   ar
    21     4     5   ar
    22    21    22   ar
    23    22    23   ar
    24    23    24   ar
    25    24    25    1
    26    25    26   ar
    27    26    27   ar
    28    27    28   ar
    29    28    29    1
    30    28    30   ar
    31    24    19   ar
    32    30    25   ar
    33     5     1   ar
    34    16     6    1
    35    14     9   ar
    36    15    18    1
