@<TRIPOS>MOLECULE
*****
 29 32 0 0 0
SMALL
GASTEIGER

@<TRIPOS>ATOM
      1 C         142.9376  140.9128  164.4766 C.ar    1  UNL1        0.1115
      2 C         143.7801  141.8824  165.2511 C.ar    1  UNL1        0.1564
      3 F         145.0150  142.4655  164.6304 F       1  UNL1       -0.2028
      4 C         143.3880  142.2690  166.6464 C.ar    1  UNL1        0.0326
      5 C         142.1532  141.6859  167.2671 C.ar    1  UNL1        0.0214
      6 C         141.7610  142.0725  168.6624 C.ar    1  UNL1        0.0075
      7 C         140.5262  141.4894  169.2831 C.ar    1  UNL1        0.0702
      8 C         139.6836  140.5198  168.5086 C.ar    1  UNL1        0.2620
      9 O         138.4489  139.9367  169.1294 O.2     1  UNL1       -0.2669
     10 N         140.0758  140.1332  167.1134 N.ar    1  UNL1       -0.2909
     11 C         141.3106  140.7163  166.4926 C.ar    1  UNL1        0.0980
     12 C         141.7027  140.3297  165.0973 C.ar    1  UNL1        0.1697
     13 O         140.8602  139.3601  164.3228 O.3     1  UNL1       -0.4707
     14 C         139.6254  138.7771  164.9436 C.3     1  UNL1        0.2279
     15 C         139.2332  139.1636  166.3389 C.3     1  UNL1        0.1321
     16 C         137.9984  138.5805  166.9596 C.3     1  UNL1        0.0285
     17 C         143.7529  140.6183  160.6932 C.3     1  UNL1        0.0357
     18 C         144.1137  139.2445  161.1752 C.3     1  UNL1        0.0244
     19 C         143.8521  139.1876  162.6512 C.3     1  UNL1        0.0910
     20 N         143.3298  140.5263  163.0813 N.pl3   1  UNL1       -0.3033
     21 C         143.2685  141.4105  161.8712 C.3     1  UNL1        0.0923
     22 C         143.6237  142.5627  158.9749 C.3     1  UNL1        0.0169
     23 C         143.8582  141.1132  159.2811 C.3     1  UNL1        0.0525
     24 N         144.1980  140.1583  158.1752 N.3     1  UNL1       -0.3221
     25 H         144.3228  139.2223  158.5607 H       1  UNL1        0.1188
     26 H         145.0612  140.4571  157.7213 H       1  UNL1        0.1188
     27 C         140.1340  141.8759  170.6784 C.2     1  UNL1        0.0775
     28 O         139.2266  143.0488  170.9047 O.co2   1  UNL1       -0.5444
     29 O         140.6492  141.0897  171.8473 O.co2   1  UNL1       -0.5444
@<TRIPOS>UNITY_ATOM_ATTR
28 1
charge -1
@<TRIPOS>BOND
     1    23    22    1
     2    23    24    1
     3    23    17    1
     4    17    18    1
     5    18    19    1
     6    19    20    1
     7    20     1    1
     8     1     2   ar
     9     2     3    1
    10     2     4   ar
    11     4     5   ar
    12     5     6   ar
    13     6     7   ar
    14     7    27    1
    15    27    28   ar
    16    27    29   ar
    17     7     8   ar
    18     8     9    2
    19     8    10   ar
    20    10    11   ar
    21    11    12   ar
    22    12    13    1
    23    13    14    1
    24    14    15    1
    25    15    16    1
    26    20    21    1
    27    21    17    1
    28    12     1   ar
    29    11     5   ar
    30    15    10    1
    31    24    25    1
    32    24    26    1
@<TRIPOS>MOLECULE
*****
 29 32 0 0 0
SMALL
GASTEIGER

@<TRIPOS>ATOM
      1 C         140.7610  143.0820  164.2614 C.ar    1  UNL1        0.1115
      2 C         139.8806  143.9085  165.1512 C.ar    1  UNL1        0.1564
      3 F         139.1407  145.0863  164.5896 F       1  UNL1       -0.2028
      4 C         139.7401  143.5572  166.6027 C.ar    1  UNL1        0.0326
      5 C         140.4799  142.3795  167.1644 C.ar    1  UNL1        0.0214
      6 C         140.3394  142.0282  168.6159 C.ar    1  UNL1        0.0075
      7 C         141.0793  140.8504  169.1776 C.ar    1  UNL1        0.0702
      8 C         141.9597  140.0239  168.2877 C.ar    1  UNL1        0.2620
      9 O         142.6995  138.8462  168.8494 O.2     1  UNL1       -0.2669
     10 N         142.1002  140.3752  166.8362 N.ar    1  UNL1       -0.2909
     11 C         141.3603  141.5529  166.2746 C.ar    1  UNL1        0.0980
     12 C         141.5009  141.9042  164.8231 C.ar    1  UNL1        0.1697
     13 O         142.3812  141.0777  163.9332 O.3     1  UNL1       -0.4707
     14 C         143.1211  139.9000  164.4949 C.3     1  UNL1        0.2279
     15 C         142.9805  139.5487  165.9464 C.3     1  UNL1        0.1321
     16 C         143.7204  138.3709  166.5081 C.3     1  UNL1        0.0285
     17 C         140.4419  143.6789  160.4394 C.3     1  UNL1        0.0357
     18 C         141.7936  144.2688  160.7130 C.3     1  UNL1        0.0244
     19 C         142.0776  144.1170  162.1781 C.3     1  UNL1        0.0910
     20 N         140.9015  143.4333  162.8099 N.pl3   1  UNL1       -0.3033
     21 C         139.8906  143.1625  161.7353 C.3     1  UNL1        0.0923
     22 C         140.3961  144.2601  157.9077 C.3     1  UNL1        0.0169
     23 C         139.7610  143.6163  159.1043 C.3     1  UNL1        0.0525
     24 N         138.4450  142.9098  158.9660 N.3     1  UNL1       -0.3221
     25 H         138.1638  142.5346  159.8718 H       1  UNL1        0.1188
     26 H         138.5377  142.1466  158.2957 H       1  UNL1        0.1188
     27 C         140.9388  140.4991  170.6291 C.2     1  UNL1        0.0775
     28 O         141.9451  140.9994  171.6226 O.co2   1  UNL1       -0.5444
     29 O         139.7920  139.6477  171.0871 O.co2   1  UNL1       -0.5444
@<TRIPOS>UNITY_ATOM_ATTR
28 1
charge -1
@<TRIPOS>BOND
     1    23    22    1
     2    23    24    1
     3    23    17    1
     4    17    18    1
     5    18    19    1
     6    19    20    1
     7    20     1    1
     8     1     2   ar
     9     2     3    1
    10     2     4   ar
    11     4     5   ar
    12     5     6   ar
    13     6     7   ar
    14     7    27    1
    15    27    28   ar
    16    27    29   ar
    17     7     8   ar
    18     8     9    2
    19     8    10   ar
    20    10    11   ar
    21    11    12   ar
    22    12    13    1
    23    13    14    1
    24    14    15    1
    25    15    16    1
    26    20    21    1
    27    21    17    1
    28    12     1   ar
    29    11     5   ar
    30    15    10    1
    31    24    25    1
    32    24    26    1
@<TRIPOS>MOLECULE
*****
 29 32 0 0 0
SMALL
GASTEIGER

@<TRIPOS>ATOM
      1 C         141.3681  140.0006  165.9648 C.ar    1  UNL1        0.1115
      2 C         142.6263  139.1839  165.9607 C.ar    1  UNL1        0.1564
      3 F         143.2736  138.7973  167.2575 F       1  UNL1       -0.2028
      4 C         143.2371  138.7539  164.6600 C.ar    1  UNL1        0.0326
      5 C         142.5898  139.1405  163.3633 C.ar    1  UNL1        0.0214
      6 C         143.2006  138.7105  162.0625 C.ar    1  UNL1        0.0075
      7 C         142.5532  139.0971  160.7658 C.ar    1  UNL1        0.0702
      8 C         141.2951  139.9138  160.7698 C.ar    1  UNL1        0.2620
      9 O         140.6478  140.3004  159.4732 O.2     1  UNL1       -0.2669
     10 N         140.6842  140.3439  162.0706 N.ar    1  UNL1       -0.2909
     11 C         141.3316  139.9572  163.3673 C.ar    1  UNL1        0.0980
     12 C         140.7207  140.3873  164.6680 C.ar    1  UNL1        0.1697
     13 O         139.4626  141.2040  164.6721 O.3     1  UNL1       -0.4707
     14 C         138.8153  141.5906  163.3754 C.3     1  UNL1        0.2279
     15 C         139.4261  141.1606  162.0746 C.3     1  UNL1        0.1321
     16 C         138.7787  141.5472  160.7779 C.3     1  UNL1        0.0285
     17 C         140.2987  141.6665  169.3035 C.3     1  UNL1        0.0357
     18 C         139.3360  140.5185  169.2309 C.3     1  UNL1        0.0244
     19 C         139.6194  139.7547  167.9714 C.3     1  UNL1        0.0910
     20 N         140.7573  140.4307  167.2655 N.pl3   1  UNL1       -0.3033
     21 C         141.1771  141.6122  168.0888 C.3     1  UNL1        0.0923
     22 C         140.3705  144.1506  170.0608 C.3     1  UNL1        0.0169
     23 C         140.3704  142.6892  170.3984 C.3     1  UNL1        0.0525
     24 N         140.4420  142.2503  171.8310 N.3     1  UNL1       -0.3221
     25 H         140.4316  141.2313  171.8753 H       1  UNL1        0.1188
     26 H         139.6400  142.6210  172.3406 H       1  UNL1        0.1188
     27 C         143.1640  138.6671  159.4650 C.2     1  UNL1        0.0775
     28 O         144.1556  139.5543  158.7724 O.co2   1  UNL1       -0.5444
     29 O         142.7833  137.3498  158.8569 O.co2   1  UNL1       -0.5444
@<TRIPOS>UNITY_ATOM_ATTR
28 1
charge -1
@<TRIPOS>BOND
     1    23    22    1
     2    23    24    1
     3    23    17    1
     4    17    18    1
     5    18    19    1
     6    19    20    1
     7    20     1    1
     8     1     2   ar
     9     2     3    1
    10     2     4   ar
    11     4     5   ar
    12     5     6   ar
    13     6     7   ar
    14     7    27    1
    15    27    28   ar
    16    27    29   ar
    17     7     8   ar
    18     8     9    2
    19     8    10   ar
    20    10    11   ar
    21    11    12   ar
    22    12    13    1
    23    13    14    1
    24    14    15    1
    25    15    16    1
    26    20    21    1
    27    21    17    1
    28    12     1   ar
    29    11     5   ar
    30    15    10    1
    31    24    25    1
    32    24    26    1
@<TRIPOS>MOLECULE
*****
 29 32 0 0 0
SMALL
GASTEIGER

@<TRIPOS>ATOM
      1 C         139.7349  139.7501  165.0482 C.ar    1  UNL1        0.1115
      2 C         139.4196  138.4287  164.4124 C.ar    1  UNL1        0.1564
      3 F         139.4500  137.1745  165.2347 F       1  UNL1       -0.2028
      4 C         139.0740  138.3614  162.9543 C.ar    1  UNL1        0.0326
      5 C         139.0436  139.6155  162.1321 C.ar    1  UNL1        0.0214
      6 C         138.6979  139.5482  160.6740 C.ar    1  UNL1        0.0075
      7 C         138.6675  140.8024  159.8517 C.ar    1  UNL1        0.0702
      8 C         138.9827  142.1239  160.4875 C.ar    1  UNL1        0.2620
      9 O         138.9523  143.3780  159.6653 O.2     1  UNL1       -0.2669
     10 N         139.3284  142.1912  161.9456 N.ar    1  UNL1       -0.2909
     11 C         139.3588  140.9371  162.7679 C.ar    1  UNL1        0.0980
     12 C         139.7045  141.0044  164.2259 C.ar    1  UNL1        0.1697
     13 O         140.0198  142.3258  164.8618 O.3     1  UNL1       -0.4707
     14 C         139.9894  143.5800  164.0395 C.3     1  UNL1        0.2279
     15 C         139.6437  143.5127  162.5814 C.3     1  UNL1        0.1321
     16 C         139.6133  144.7669  161.7592 C.3     1  UNL1        0.0285
     17 C         141.3423  139.9053  168.5778 C.3     1  UNL1        0.0357
     18 C         139.8828  139.9368  168.9224 C.3     1  UNL1        0.0244
     19 C         139.1030  139.8824  167.6421 C.3     1  UNL1        0.0910
     20 N         140.0806  139.8175  166.5063 N.pl3   1  UNL1       -0.3033
     21 C         141.4646  139.8316  167.0846 C.3     1  UNL1        0.0923
     22 C         143.2438  141.2141  169.7699 C.3     1  UNL1        0.0169
     23 C         142.4799  139.9413  169.5548 C.3     1  UNL1        0.0525
     24 N         142.8536  138.7044  170.3166 N.3     1  UNL1       -0.3221
     25 H         142.2344  137.9396  170.0480 H       1  UNL1        0.1188
     26 H         142.7619  138.8806  171.3171 H       1  UNL1        0.1188
     27 C         138.3218  140.7351  158.3937 C.2     1  UNL1        0.0775
     28 O         139.3623  141.0522  157.3608 O.co2   1  UNL1       -0.5444
     29 O         136.9356  140.3508  157.9685 O.co2   1  UNL1       -0.5444
@<TRIPOS>UNITY_ATOM_ATTR
28 1
charge -1
@<TRIPOS>BOND
     1    23    22    1
     2    23    24    1
     3    23    17    1
     4    17    18    1
     5    18    19    1
     6    19    20    1
     7    20     1    1
     8     1     2   ar
     9     2     3    1
    10     2     4   ar
    11     4     5   ar
    12     5     6   ar
    13     6     7   ar
    14     7    27    1
    15    27    28   ar
    16    27    29   ar
    17     7     8   ar
    18     8     9    2
    19     8    10   ar
    20    10    11   ar
    21    11    12   ar
    22    12    13    1
    23    13    14    1
    24    14    15    1
    25    15    16    1
    26    20    21    1
    27    21    17    1
    28    12     1   ar
    29    11     5   ar
    30    15    10    1
    31    24    25    1
    32    24    26    1
@<TRIPOS>MOLECULE
*****
 29 32 0 0 0
SMALL
GASTEIGER

@<TRIPOS>ATOM
      1 C         139.9641  139.5030  164.9187 C.ar    1  UNL1        0.1115
      2 C         139.2300  138.2577  164.5184 C.ar    1  UNL1        0.1564
      3 F         138.9476  137.1934  165.5370 F       1  UNL1       -0.2028
      4 C         138.7783  138.0767  163.0995 C.ar    1  UNL1        0.0326
      5 C         139.0608  139.1409  162.0809 C.ar    1  UNL1        0.0214
      6 C         138.6091  138.9598  160.6620 C.ar    1  UNL1        0.0075
      7 C         138.8916  140.0241  159.6434 C.ar    1  UNL1        0.0702
      8 C         139.6257  141.2694  160.0437 C.ar    1  UNL1        0.2620
      9 O         139.9081  142.3337  159.0251 O.2     1  UNL1       -0.2669
     10 N         140.0773  141.4505  161.4626 N.ar    1  UNL1       -0.2909
     11 C         139.7949  140.3863  162.4812 C.ar    1  UNL1        0.0980
     12 C         140.2466  140.5673  163.9000 C.ar    1  UNL1        0.1697
     13 O         140.9807  141.8126  164.3003 O.3     1  UNL1       -0.4707
     14 C         141.2631  142.8769  163.2817 C.3     1  UNL1        0.2279
     15 C         140.8115  142.6958  161.8628 C.3     1  UNL1        0.1321
     16 C         141.0939  143.7601  160.8442 C.3     1  UNL1        0.0285
     17 C         140.4173  140.1718  168.7151 C.3     1  UNL1        0.0357
     18 C         141.8045  139.7536  168.3269 C.3     1  UNL1        0.0244
     19 C         141.8036  139.4522  166.8575 C.3     1  UNL1        0.0910
     20 N         140.4158  139.6841  166.3375 N.pl3   1  UNL1       -0.3033
     21 C         139.5591  140.1289  167.4856 C.3     1  UNL1        0.0923
     22 C         139.6676  142.0008  170.4011 C.3     1  UNL1        0.0169
     23 C         139.9673  140.5641  170.0912 C.3     1  UNL1        0.0525
     24 N         139.8171  139.5197  171.1573 N.3     1  UNL1       -0.3221
     25 H         140.0606  138.6060  170.7748 H       1  UNL1        0.1188
     26 H         138.8513  139.5047  171.4849 H       1  UNL1        0.1188
     27 C         138.4399  139.8431  158.2246 C.2     1  UNL1        0.0775
     28 O         139.1818  138.9094  157.3146 O.co2   1  UNL1       -0.5444
     29 O         137.2463  140.5956  157.7156 O.co2   1  UNL1       -0.5444
@<TRIPOS>UNITY_ATOM_ATTR
28 1
charge -1
@<TRIPOS>BOND
     1    23    22    1
     2    23    24    1
     3    23    17    1
     4    17    18    1
     5    18    19    1
     6    19    20    1
     7    20     1    1
     8     1     2   ar
     9     2     3    1
    10     2     4   ar
    11     4     5   ar
    12     5     6   ar
    13     6     7   ar
    14     7    27    1
    15    27    28   ar
    16    27    29   ar
    17     7     8   ar
    18     8     9    2
    19     8    10   ar
    20    10    11   ar
    21    11    12   ar
    22    12    13    1
    23    13    14    1
    24    14    15    1
    25    15    16    1
    26    20    21    1
    27    21    17    1
    28    12     1   ar
    29    11     5   ar
    30    15    10    1
    31    24    25    1
    32    24    26    1
@<TRIPOS>MOLECULE
*****
 29 32 0 0 0
SMALL
GASTEIGER

@<TRIPOS>ATOM
      1 C         140.1788  143.0852  164.8482 C.ar    1  UNL1        0.1115
      2 C         139.3124  144.2911  164.6360 C.ar    1  UNL1        0.1564
      3 F         138.4000  144.7611  165.7300 F       1  UNL1       -0.2028
      4 C         139.3582  145.0271  163.3297 C.ar    1  UNL1        0.0326
      5 C         140.2705  144.5572  162.2357 C.ar    1  UNL1        0.0214
      6 C         140.3163  145.2931  160.9295 C.ar    1  UNL1        0.0075
      7 C         141.2287  144.8232  159.8355 C.ar    1  UNL1        0.0702
      8 C         142.0951  143.6173  160.0477 C.ar    1  UNL1        0.2620
      9 O         143.0074  143.1474  158.9537 O.2     1  UNL1       -0.2669
     10 N         142.0493  142.8814  161.3539 N.ar    1  UNL1       -0.2909
     11 C         141.1370  143.3512  162.4479 C.ar    1  UNL1        0.0980
     12 C         141.0912  142.6153  163.7542 C.ar    1  UNL1        0.1697
     13 O         141.9577  141.4094  163.9664 O.3     1  UNL1       -0.4707
     14 C         142.8700  140.9395  162.8724 C.3     1  UNL1        0.2279
     15 C         142.9158  141.6755  161.5662 C.3     1  UNL1        0.1321
     16 C         143.8281  141.2055  160.4722 C.3     1  UNL1        0.0285
     17 C         140.3490  141.8162  168.5124 C.3     1  UNL1        0.0357
     18 C         139.7760  140.6172  167.8167 C.3     1  UNL1        0.0244
     19 C         139.6425  140.9467  166.3595 C.3     1  UNL1        0.0910
     20 N         140.1330  142.3493  166.1544 N.pl3   1  UNL1       -0.3033
     21 C         140.5697  142.8867  167.4850 C.3     1  UNL1        0.0923
     22 C         141.9798  141.4800  170.5066 C.3     1  UNL1        0.0169
     23 C         140.6488  141.9256  169.9781 C.3     1  UNL1        0.0525
     24 N         139.6173  142.4807  170.9151 N.3     1  UNL1       -0.3221
     25 H         138.7799  142.7310  170.3892 H       1  UNL1        0.1188
     26 H         139.9892  143.3105  171.3772 H       1  UNL1        0.1188
     27 C         141.2745  145.5591  158.5292 C.2     1  UNL1        0.0775
     28 O         142.5439  146.2257  158.0880 O.co2   1  UNL1       -0.5444
     29 O         140.0511  145.6286  157.6642 O.co2   1  UNL1       -0.5444
@<TRIPOS>UNITY_ATOM_ATTR
28 1
charge -1
@<TRIPOS>BOND
     1    23    22    1
     2    23    24    1
     3    23    17    1
     4    17    18    1
     5    18    19    1
     6    19    20    1
     7    20     1    1
     8     1     2   ar
     9     2     3    1
    10     2     4   ar
    11     4     5   ar
    12     5     6   ar
    13     6     7   ar
    14     7    27    1
    15    27    28   ar
    16    27    29   ar
    17     7     8   ar
    18     8     9    2
    19     8    10   ar
    20    10    11   ar
    21    11    12   ar
    22    12    13    1
    23    13    14    1
    24    14    15    1
    25    15    16    1
    26    20    21    1
    27    21    17    1
    28    12     1   ar
    29    11     5   ar
    30    15    10    1
    31    24    25    1
    32    24    26    1
@<TRIPOS>MOLECULE
*****
 29 32 0 0 0
SMALL
GASTEIGER

@<TRIPOS>ATOM
      1 C         141.8409  142.0187  165.7294 C.ar    1  UNL1        0.1115
      2 C         143.0178  142.9230  165.5128 C.ar    1  UNL1        0.1564
      3 F         144.0520  143.0788  166.5881 F       1  UNL1       -0.2028
      4 C         143.1606  143.6716  164.2208 C.ar    1  UNL1        0.0326
      5 C         142.1266  143.5159  163.1455 C.ar    1  UNL1        0.0214
      6 C         142.2694  144.2645  161.8535 C.ar    1  UNL1        0.0075
      7 C         141.2353  144.1087  160.7781 C.ar    1  UNL1        0.0702
      8 C         140.0583  143.2044  160.9948 C.ar    1  UNL1        0.2620
      9 O         139.0243  143.0486  159.9194 O.2     1  UNL1       -0.2669
     10 N         139.9155  142.4558  162.2867 N.ar    1  UNL1       -0.2909
     11 C         140.9496  142.6115  163.3621 C.ar    1  UNL1        0.0980
     12 C         140.8067  141.8629  164.6540 C.ar    1  UNL1        0.1697
     13 O         139.6298  140.9586  164.8707 O.3     1  UNL1       -0.4707
     14 C         138.5957  140.8029  163.7954 C.3     1  UNL1        0.2279
     15 C         138.7386  141.5514  162.5034 C.3     1  UNL1        0.1321
     16 C         137.7044  141.3957  161.4280 C.3     1  UNL1        0.0285
     17 C         140.8582  140.5094  169.1677 C.3     1  UNL1        0.0357
     18 C         142.0982  139.7269  168.8514 C.3     1  UNL1        0.0244
     19 C         142.6172  140.1970  167.5249 C.3     1  UNL1        0.0910
     20 N         141.6980  141.2701  167.0214 N.pl3   1  UNL1       -0.3033
     21 C         140.6109  141.4632  168.0367 C.3     1  UNL1        0.0923
     22 C         138.5338  140.1549  170.2728 C.3     1  UNL1        0.0169
     23 C         140.0138  140.3637  170.3989 C.3     1  UNL1        0.0525
     24 N         140.6495  140.4270  171.7560 N.3     1  UNL1       -0.3221
     25 H         141.6539  140.5725  171.6545 H       1  UNL1        0.1188
     26 H         140.4812  139.5514  172.2515 H       1  UNL1        0.1188
     27 C         141.3781  144.8573  159.4862 C.2     1  UNL1        0.0775
     28 O         142.5805  144.6322  158.6179 O.co2   1  UNL1       -0.5444
     29 O         140.3187  145.8310  159.0624 O.co2   1  UNL1       -0.5444
@<TRIPOS>UNITY_ATOM_ATTR
28 1
charge -1
@<TRIPOS>BOND
     1    23    22    1
     2    23    24    1
     3    23    17    1
     4    17    18    1
     5    18    19    1
     6    19    20    1
     7    20     1    1
     8     1     2   ar
     9     2     3    1
    10     2     4   ar
    11     4     5   ar
    12     5     6   ar
    13     6     7   ar
    14     7    27    1
    15    27    28   ar
    16    27    29   ar
    17     7     8   ar
    18     8     9    2
    19     8    10   ar
    20    10    11   ar
    21    11    12   ar
    22    12    13    1
    23    13    14    1
    24    14    15    1
    25    15    16    1
    26    20    21    1
    27    21    17    1
    28    12     1   ar
    29    11     5   ar
    30    15    10    1
    31    24    25    1
    32    24    26    1
@<TRIPOS>MOLECULE
*****
 29 32 0 0 0
SMALL
GASTEIGER

@<TRIPOS>ATOM
      1 C         142.9323  139.8904  164.7135 C.ar    1  UNL1        0.1115
      2 C         144.2486  139.9519  163.9969 C.ar    1  UNL1        0.1564
      3 F         145.4992  140.2898  164.7530 F       1  UNL1       -0.2028
      4 C         144.3142  139.6756  162.5240 C.ar    1  UNL1        0.0326
      5 C         143.0637  139.3377  161.7678 C.ar    1  UNL1        0.0214
      6 C         143.1293  139.0614  160.2949 C.ar    1  UNL1        0.0075
      7 C         141.8787  138.7235  159.5388 C.ar    1  UNL1        0.0702
      8 C         140.5624  138.6620  160.2554 C.ar    1  UNL1        0.2620
      9 O         139.3119  138.3241  159.4992 O.2     1  UNL1       -0.2669
     10 N         140.4968  138.9383  161.7283 N.ar    1  UNL1       -0.2909
     11 C         141.7473  139.2762  162.4845 C.ar    1  UNL1        0.0980
     12 C         141.6817  139.5525  163.9574 C.ar    1  UNL1        0.1697
     13 O         140.3654  139.4909  164.6740 O.3     1  UNL1       -0.4707
     14 C         139.1149  139.1531  163.9178 C.3     1  UNL1        0.2279
     15 C         139.1805  138.8767  162.4450 C.3     1  UNL1        0.1321
     16 C         137.9299  138.5389  161.6888 C.3     1  UNL1        0.0285
     17 C         142.8223  141.3274  168.3175 C.3     1  UNL1        0.0357
     18 C         142.7089  139.8564  168.5884 C.3     1  UNL1        0.0244
     19 C         142.7363  139.1391  167.2713 C.3     1  UNL1        0.0910
     20 N         142.8667  140.1667  166.1864 N.pl3   1  UNL1       -0.3033
     21 C         142.9198  141.5191  166.8330 C.3     1  UNL1        0.0923
     22 C         141.5627  143.1203  169.7133 C.3     1  UNL1        0.0169
     23 C         142.8358  142.4156  169.3498 C.3     1  UNL1        0.0525
     24 N         144.1227  142.7989  170.0185 N.3     1  UNL1       -0.3221
     25 H         144.8805  142.2221  169.6534 H       1  UNL1        0.1188
     26 H         144.0394  142.6538  171.0247 H       1  UNL1        0.1188
     27 C         141.9443  138.4472  158.0659 C.2     1  UNL1        0.0775
     28 O         141.4091  139.4525  157.0896 O.co2   1  UNL1       -0.5444
     29 O         142.5452  137.1657  157.5693 O.co2   1  UNL1       -0.5444
@<TRIPOS>UNITY_ATOM_ATTR
28 1
charge -1
@<TRIPOS>BOND
     1    23    22    1
     2    23    24    1
     3    23    17    1
     4    17    18    1
     5    18    19    1
     6    19    20    1
     7    20     1    1
     8     1     2   ar
     9     2     3    1
    10     2     4   ar
    11     4     5   ar
    12     5     6   ar
    13     6     7   ar
    14     7    27    1
    15    27    28   ar
    16    27    29   ar
    17     7     8   ar
    18     8     9    2
    19     8    10   ar
    20    10    11   ar
    21    11    12   ar
    22    12    13    1
    23    13    14    1
    24    14    15    1
    25    15    16    1
    26    20    21    1
    27    21    17    1
    28    12     1   ar
    29    11     5   ar
    30    15    10    1
    31    24    25    1
    32    24    26    1
@<TRIPOS>MOLECULE
*****
 29 32 0 0 0
SMALL
GASTEIGER

@<TRIPOS>ATOM
      1 C         139.4970  142.2583  164.0248 C.ar    1  UNL1        0.1115
      2 C         138.5744  143.4278  163.8491 C.ar    1  UNL1        0.1564
      3 F         137.4907  143.6858  164.8537 F       1  UNL1       -0.2028
      4 C         138.7354  144.3395  162.6689 C.ar    1  UNL1        0.0326
      5 C         139.8191  144.0816  161.6644 C.ar    1  UNL1        0.0214
      6 C         139.9801  144.9932  160.4841 C.ar    1  UNL1        0.0075
      7 C         141.0638  144.7353  159.4796 C.ar    1  UNL1        0.0702
      8 C         141.9865  143.5657  159.6552 C.ar    1  UNL1        0.2620
      9 O         143.0701  143.3078  158.6507 O.2     1  UNL1       -0.2669
     10 N         141.8254  142.6541  160.8355 N.ar    1  UNL1       -0.2909
     11 C         140.7418  142.9120  161.8400 C.ar    1  UNL1        0.0980
     12 C         140.5807  142.0003  163.0203 C.ar    1  UNL1        0.1697
     13 O         141.5033  140.8308  163.1959 O.3     1  UNL1       -0.4707
     14 C         142.5870  140.5729  162.1914 C.3     1  UNL1        0.2279
     15 C         142.7480  141.4845  161.0112 C.3     1  UNL1        0.1321
     16 C         143.8317  141.2266  160.0066 C.3     1  UNL1        0.0285
     17 C         139.5444  140.3831  167.4229 C.3     1  UNL1        0.0357
     18 C         138.6319  139.5044  166.6197 C.3     1  UNL1        0.0244
     19 C         138.5031  140.0999  165.2490 C.3     1  UNL1        0.0910
     20 N         139.3360  141.3466  165.2051 N.pl3   1  UNL1       -0.3033
     21 C         139.9796  141.5216  166.5486 C.3     1  UNL1        0.0923
     22 C         138.9552  140.3664  169.9532 C.3     1  UNL1        0.0169
     23 C         139.9505  140.1620  168.8499 C.3     1  UNL1        0.0525
     24 N         141.3521  139.7366  169.1734 N.3     1  UNL1       -0.3221
     25 H         141.8878  139.6463  168.3101 H       1  UNL1        0.1188
     26 H         141.3318  138.8384  169.6564 H       1  UNL1        0.1188
     27 C         141.2249  145.6469  158.2993 C.2     1  UNL1        0.0775
     28 O         142.5602  146.2635  158.0046 O.co2   1  UNL1       -0.5444
     29 O         140.0507  145.9420  157.4138 O.co2   1  UNL1       -0.5444
@<TRIPOS>UNITY_ATOM_ATTR
28 1
charge -1
@<TRIPOS>BOND
     1    23    22    1
     2    23    24    1
     3    23    17    1
     4    17    18    1
     5    18    19    1
     6    19    20    1
     7    20     1    1
     8     1     2   ar
     9     2     3    1
    10     2     4   ar
    11     4     5   ar
    12     5     6   ar
    13     6     7   ar
    14     7    27    1
    15    27    28   ar
    16    27    29   ar
    17     7     8   ar
    18     8     9    2
    19     8    10   ar
    20    10    11   ar
    21    11    12   ar
    22    12    13    1
    23    13    14    1
    24    14    15    1
    25    15    16    1
    26    20    21    1
    27    21    17    1
    28    12     1   ar
    29    11     5   ar
    30    15    10    1
    31    24    25    1
    32    24    26    1
