@<TRIPOS>MOLECULE
*****
 23 26 0 0 0
SMALL
GASTEIGER

@<TRIPOS>ATOM
      1 C         139.7732  140.0238  167.6819 C.3     1  UNL1        0.1907
      2 C         140.9147  140.5373  166.8552 C.ar    1  UNL1        0.0173
      3 C         141.0150  142.0008  166.5419 C.ar    1  UNL1       -0.0008
      4 C         142.1565  142.5143  165.7153 C.ar    1  UNL1       -0.0002
      5 C         143.1978  141.5643  165.2020 C.ar    1  UNL1       -0.0000
      6 C         144.3392  142.0778  164.3754 C.ar    1  UNL1       -0.0000
      7 C         145.3804  141.1279  163.8622 C.ar    1  UNL1       -0.0000
      8 C         145.2801  139.6644  164.1755 C.ar    1  UNL1       -0.0000
      9 C         144.1386  139.1509  165.0021 C.ar    1  UNL1       -0.0000
     10 C         143.0975  140.1008  165.5153 C.ar    1  UNL1       -0.0002
     11 C         141.9559  139.5873  166.3420 C.ar    1  UNL1       -0.0008
     12 C         139.8699  140.0277  169.1787 C.3     1  UNL1        0.0758
     13 C         138.9077  140.2731  170.3032 C.3     1  UNL1        0.0739
     14 N         140.0066  140.0332  171.2956 N.3     1  UNL1       -0.2972
     15 C         140.9686  139.7879  170.1713 C.3     1  UNL1        0.0739
     16 H         139.8546  139.2240  171.8977 H       1  UNL1        0.1233
     17 O         138.5350  139.5064  167.0116 O.3     1  UNL1       -0.4747
     18 C         138.5110  138.7978  162.5678 C.ar    1  UNL1        0.0002
     19 C         138.0966  140.1307  163.1170 C.ar    1  UNL1        0.0031
     20 C         138.1046  140.3670  164.5983 C.ar    1  UNL1        0.0369
     21 C         138.5270  139.2702  165.5304 C.ar    1  UNL1        0.1389
     22 C         138.9414  137.9373  164.9812 C.ar    1  UNL1        0.0369
     23 C         138.9334  137.7011  163.4999 C.ar    1  UNL1        0.0031
@<TRIPOS>BOND
     1    18    19   ar
     2    19    20   ar
     3    20    21   ar
     4    21    17    1
     5    17     1    1
     6     1     2    1
     7     2     3   ar
     8     3     4   ar
     9     4     5   ar
    10     5     6   ar
    11     6     7   ar
    12     7     8   ar
    13     8     9   ar
    14     9    10   ar
    15    10    11   ar
    16     1    12    1
    17    12    13    1
    18    13    14    1
    19    14    15    1
    20    21    22   ar
    21    22    23   ar
    22    23    18   ar
    23    11     2   ar
    24    15    12    1
    25    10     5   ar
    26    14    16    1
@<TRIPOS>MOLECULE
*****
 23 26 0 0 0
SMALL
GASTEIGER

@<TRIPOS>ATOM
      1 C         140.8021  139.9766  168.0446 C.3     1  UNL1        0.1907
      2 C         141.8983  140.0602  167.0240 C.ar    1  UNL1        0.0173
      3 C         142.5927  138.8122  166.5652 C.ar    1  UNL1       -0.0008
      4 C         143.6888  138.8958  165.5447 C.ar    1  UNL1       -0.0002
      5 C         144.0905  140.2274  164.9829 C.ar    1  UNL1       -0.0000
      6 C         145.1866  140.3109  163.9623 C.ar    1  UNL1       -0.0000
      7 C         145.5884  141.6425  163.4005 C.ar    1  UNL1       -0.0000
      8 C         144.8940  142.8904  163.8593 C.ar    1  UNL1       -0.0000
      9 C         143.7979  142.8068  164.8798 C.ar    1  UNL1       -0.0000
     10 C         143.3962  141.4753  165.4416 C.ar    1  UNL1       -0.0002
     11 C         142.3000  141.3917  166.4622 C.ar    1  UNL1       -0.0008
     12 C         141.1133  140.1799  169.4978 C.3     1  UNL1        0.0758
     13 C         140.2993  140.2677  170.7547 C.3     1  UNL1        0.0739
     14 N         141.5534  140.4676  171.5529 N.3     1  UNL1       -0.2972
     15 C         142.3674  140.3799  170.2961 C.3     1  UNL1        0.0739
     16 H         141.7427  139.7234  172.2244 H       1  UNL1        0.1233
     17 O         139.3949  139.6896  167.6119 O.3     1  UNL1       -0.4747
     18 C         138.4105  139.3574  163.2335 C.ar    1  UNL1        0.0002
     19 C         138.8181  138.1375  164.0052 C.ar    1  UNL1        0.0031
     20 C         139.1462  138.2482  165.4648 C.ar    1  UNL1        0.0369
     21 C         139.0668  139.5789  166.1525 C.ar    1  UNL1        0.1389
     22 C         138.6592  140.7989  165.3807 C.ar    1  UNL1        0.0369
     23 C         138.3311  140.6881  163.9212 C.ar    1  UNL1        0.0031
@<TRIPOS>BOND
     1    18    19   ar
     2    19    20   ar
     3    20    21   ar
     4    21    17    1
     5    17     1    1
     6     1     2    1
     7     2     3   ar
     8     3     4   ar
     9     4     5   ar
    10     5     6   ar
    11     6     7   ar
    12     7     8   ar
    13     8     9   ar
    14     9    10   ar
    15    10    11   ar
    16     1    12    1
    17    12    13    1
    18    13    14    1
    19    14    15    1
    20    21    22   ar
    21    22    23   ar
    22    23    18   ar
    23    11     2   ar
    24    15    12    1
    25    10     5   ar
    26    14    16    1
@<TRIPOS>MOLECULE
*****
 23 26 0 0 0
SMALL
GASTEIGER

@<TRIPOS>ATOM
      1 C         142.6828  139.8935  167.5184 C.3     1  UNL1        0.1907
      2 C         142.2259  141.0557  166.6873 C.ar    1  UNL1        0.0173
      3 C         140.7603  141.3290  166.5216 C.ar    1  UNL1       -0.0008
      4 C         140.3034  142.4912  165.6906 C.ar    1  UNL1       -0.0002
      5 C         141.3121  143.3800  165.0252 C.ar    1  UNL1       -0.0000
      6 C         140.8551  144.5421  164.1942 C.ar    1  UNL1       -0.0000
      7 C         141.8638  145.4309  163.5289 C.ar    1  UNL1       -0.0000
      8 C         143.3293  145.1576  163.6946 C.ar    1  UNL1       -0.0000
      9 C         143.7862  143.9955  164.5256 C.ar    1  UNL1       -0.0000
     10 C         142.7776  143.1067  165.1909 C.ar    1  UNL1       -0.0002
     11 C         143.2345  141.9445  166.0220 C.ar    1  UNL1       -0.0008
     12 C         142.7002  140.0021  169.0144 C.3     1  UNL1        0.0758
     13 C         143.0932  141.0660  169.9961 C.3     1  UNL1        0.0739
     14 N         142.7248  140.1557  171.1300 N.3     1  UNL1       -0.2972
     15 C         142.3318  139.0919  170.1483 C.3     1  UNL1        0.0739
     16 H         141.9544  140.4972  171.7046 H       1  UNL1        0.1233
     17 O         143.1222  138.6228  166.8535 O.3     1  UNL1       -0.4747
     18 C         142.3058  137.9752  162.4759 C.ar    1  UNL1        0.0002
     19 C         141.3213  137.4963  163.5012 C.ar    1  UNL1        0.0031
     20 C         141.5935  137.7121  164.9605 C.ar    1  UNL1        0.0369
     21 C         142.8501  138.4069  165.3943 C.ar    1  UNL1        0.1389
     22 C         143.8345  138.8859  164.3689 C.ar    1  UNL1        0.0369
     23 C         143.5624  138.6700  162.9097 C.ar    1  UNL1        0.0031
@<TRIPOS>BOND
     1    18    19   ar
     2    19    20   ar
     3    20    21   ar
     4    21    17    1
     5    17     1    1
     6     1     2    1
     7     2     3   ar
     8     3     4   ar
     9     4     5   ar
    10     5     6   ar
    11     6     7   ar
    12     7     8   ar
    13     8     9   ar
    14     9    10   ar
    15    10    11   ar
    16     1    12    1
    17    12    13    1
    18    13    14    1
    19    14    15    1
    20    21    22   ar
    21    22    23   ar
    22    23    18   ar
    23    11     2   ar
    24    15    12    1
    25    10     5   ar
    26    14    16    1
@<TRIPOS>MOLECULE
*****
 23 26 0 0 0
SMALL
GASTEIGER

@<TRIPOS>ATOM
      1 C         139.7401  140.2544  167.3655 C.3     1  UNL1        0.1907
      2 C         140.7288  141.1193  166.6412 C.ar    1  UNL1        0.0173
      3 C         142.1853  140.7608  166.6481 C.ar    1  UNL1       -0.0008
      4 C         143.1739  141.6256  165.9238 C.ar    1  UNL1       -0.0002
      5 C         142.7061  142.8490  165.1926 C.ar    1  UNL1       -0.0000
      6 C         143.6947  143.7138  164.4683 C.ar    1  UNL1       -0.0000
      7 C         143.2268  144.9371  163.7371 C.ar    1  UNL1       -0.0000
      8 C         141.7703  145.2955  163.7302 C.ar    1  UNL1       -0.0000
      9 C         140.7817  144.4307  164.4545 C.ar    1  UNL1       -0.0000
     10 C         141.2496  143.2075  165.1857 C.ar    1  UNL1       -0.0002
     11 C         140.2609  142.3426  165.9100 C.ar    1  UNL1       -0.0008
     12 C         139.8244  140.1053  168.8557 C.3     1  UNL1        0.0758
     13 C         140.9101  139.7443  169.8258 C.3     1  UNL1        0.0739
     14 N         139.9437  139.8944  170.9631 N.3     1  UNL1       -0.2972
     15 C         138.8581  140.2553  169.9931 C.3     1  UNL1        0.0739
     16 H         140.1827  140.6399  171.6170 H       1  UNL1        0.1233
     17 O         138.6672  139.5387  166.5997 O.3     1  UNL1       -0.4747
     18 C         139.4632  138.1194  162.4042 C.ar    1  UNL1        0.0002
     19 C         138.5499  139.2855  162.6409 C.ar    1  UNL1        0.0031
     20 C         138.2845  139.7586  164.0394 C.ar    1  UNL1        0.0369
     21 C         138.9325  139.0656  165.2012 C.ar    1  UNL1        0.1389
     22 C         139.8459  137.8995  164.9645 C.ar    1  UNL1        0.0369
     23 C         140.1112  137.4264  163.5661 C.ar    1  UNL1        0.0031
@<TRIPOS>BOND
     1    18    19   ar
     2    19    20   ar
     3    20    21   ar
     4    21    17    1
     5    17     1    1
     6     1     2    1
     7     2     3   ar
     8     3     4   ar
     9     4     5   ar
    10     5     6   ar
    11     6     7   ar
    12     7     8   ar
    13     8     9   ar
    14     9    10   ar
    15    10    11   ar
    16     1    12    1
    17    12    13    1
    18    13    14    1
    19    14    15    1
    20    21    22   ar
    21    22    23   ar
    22    23    18   ar
    23    11     2   ar
    24    15    12    1
    25    10     5   ar
    26    14    16    1
@<TRIPOS>MOLECULE
*****
 23 26 0 0 0
SMALL
GASTEIGER

@<TRIPOS>ATOM
      1 C         142.0457  141.6452  167.8526 C.3     1  UNL1        0.1907
      2 C         141.8987  142.4030  166.5663 C.ar    1  UNL1        0.0173
      3 C         143.0799  142.5751  165.6581 C.ar    1  UNL1       -0.0008
      4 C         142.9330  143.3327  164.3719 C.ar    1  UNL1       -0.0002
      5 C         141.6047  143.9183  163.9939 C.ar    1  UNL1       -0.0000
      6 C         141.4577  144.6760  162.7077 C.ar    1  UNL1       -0.0000
      7 C         140.1294  145.2615  162.3298 C.ar    1  UNL1       -0.0000
      8 C         138.9482  145.0894  163.2381 C.ar    1  UNL1       -0.0000
      9 C         139.0951  144.3317  164.5243 C.ar    1  UNL1       -0.0000
     10 C         140.4234  143.7462  164.9022 C.ar    1  UNL1       -0.0002
     11 C         140.5704  142.9885  166.1884 C.ar    1  UNL1       -0.0008
     12 C         142.5298  142.3483  169.0860 C.3     1  UNL1        0.0758
     13 C         143.8449  142.4536  169.7998 C.3     1  UNL1        0.0739
     14 N         143.2143  143.3425  170.8304 N.3     1  UNL1       -0.2972
     15 C         141.8993  143.2372  170.1167 C.3     1  UNL1        0.0739
     16 H         143.5990  144.2868  170.8574 H       1  UNL1        0.1233
     17 O         141.7086  140.1846  167.9053 O.3     1  UNL1       -0.4747
     18 C         138.6340  138.4821  165.0950 C.ar    1  UNL1        0.0002
     19 C         140.0894  138.4291  164.7357 C.ar    1  UNL1        0.0031
     20 C         141.1143  138.9966  165.6726 C.ar    1  UNL1        0.0369
     21 C         140.6838  139.6171  166.9685 C.ar    1  UNL1        0.1389
     22 C         139.2283  139.6701  167.3277 C.ar    1  UNL1        0.0369
     23 C         138.2035  139.1027  166.3910 C.ar    1  UNL1        0.0031
@<TRIPOS>BOND
     1    18    19   ar
     2    19    20   ar
     3    20    21   ar
     4    21    17    1
     5    17     1    1
     6     1     2    1
     7     2     3   ar
     8     3     4   ar
     9     4     5   ar
    10     5     6   ar
    11     6     7   ar
    12     7     8   ar
    13     8     9   ar
    14     9    10   ar
    15    10    11   ar
    16     1    12    1
    17    12    13    1
    18    13    14    1
    19    14    15    1
    20    21    22   ar
    21    22    23   ar
    22    23    18   ar
    23    11     2   ar
    24    15    12    1
    25    10     5   ar
    26    14    16    1
@<TRIPOS>MOLECULE
*****
 23 26 0 0 0
SMALL
GASTEIGER

@<TRIPOS>ATOM
      1 C         139.6025  140.1005  167.1744 C.3     1  UNL1        0.1907
      2 C         140.2144  141.2303  166.4002 C.ar    1  UNL1        0.0173
      3 C         139.3424  142.1434  165.5904 C.ar    1  UNL1       -0.0008
      4 C         139.9542  143.2731  164.8163 C.ar    1  UNL1       -0.0002
      5 C         141.4381  143.4898  164.8519 C.ar    1  UNL1       -0.0000
      6 C         142.0499  144.6195  164.0777 C.ar    1  UNL1       -0.0000
      7 C         143.5337  144.8361  164.1134 C.ar    1  UNL1       -0.0000
      8 C         144.4057  143.9230  164.9232 C.ar    1  UNL1       -0.0000
      9 C         143.7939  142.7933  165.6974 C.ar    1  UNL1       -0.0000
     10 C         142.3101  142.5767  165.6617 C.ar    1  UNL1       -0.0002
     11 C         141.6982  141.4469  166.4359 C.ar    1  UNL1       -0.0008
     12 C         139.7031  140.0757  168.6709 C.3     1  UNL1        0.0758
     13 C         140.8071  139.8282  169.6558 C.3     1  UNL1        0.0739
     14 N         139.8453  140.0407  170.7871 N.3     1  UNL1       -0.2972
     15 C         138.7415  140.2882  169.8023 C.3     1  UNL1        0.0739
     16 H         140.0659  140.8438  171.3759 H       1  UNL1        0.1233
     17 O         138.8901  138.9957  166.4522 O.3     1  UNL1       -0.4747
     18 C         140.3131  137.6781  162.3916 C.ar    1  UNL1        0.0002
     19 C         139.0476  138.4728  162.5213 C.ar    1  UNL1        0.0031
     20 C         138.5733  138.9121  163.8749 C.ar    1  UNL1        0.0369
     21 C         139.3644  138.5565  165.0987 C.ar    1  UNL1        0.1389
     22 C         140.6300  137.7617  164.9689 C.ar    1  UNL1        0.0369
     23 C         141.1043  137.3225  163.6153 C.ar    1  UNL1        0.0031
@<TRIPOS>BOND
     1    18    19   ar
     2    19    20   ar
     3    20    21   ar
     4    21    17    1
     5    17     1    1
     6     1     2    1
     7     2     3   ar
     8     3     4   ar
     9     4     5   ar
    10     5     6   ar
    11     6     7   ar
    12     7     8   ar
    13     8     9   ar
    14     9    10   ar
    15    10    11   ar
    16     1    12    1
    17    12    13    1
    18    13    14    1
    19    14    15    1
    20    21    22   ar
    21    22    23   ar
    22    23    18   ar
    23    11     2   ar
    24    15    12    1
    25    10     5   ar
    26    14    16    1
@<TRIPOS>MOLECULE
*****
 23 26 0 0 0
SMALL
GASTEIGER

@<TRIPOS>ATOM
      1 C         142.3315  139.6536  167.3567 C.3     1  UNL1        0.1907
      2 C         141.1927  140.3329  166.6554 C.ar    1  UNL1        0.0173
      3 C         139.9543  139.5589  166.3125 C.ar    1  UNL1       -0.0008
      4 C         138.8156  140.2381  165.6112 C.ar    1  UNL1       -0.0002
      5 C         138.9150  141.6913  165.2528 C.ar    1  UNL1       -0.0000
      6 C         137.7763  142.3704  164.5515 C.ar    1  UNL1       -0.0000
      7 C         137.8758  143.8236  164.1931 C.ar    1  UNL1       -0.0000
      8 C         139.1141  144.5975  164.5360 C.ar    1  UNL1       -0.0000
      9 C         140.2529  143.9183  165.2372 C.ar    1  UNL1       -0.0000
     10 C         140.1534  142.4652  165.5957 C.ar    1  UNL1       -0.0002
     11 C         141.2922  141.7860  166.2970 C.ar    1  UNL1       -0.0008
     12 C         142.5383  139.8628  168.8276 C.3     1  UNL1        0.0758
     13 C         142.3254  139.0310  170.0576 C.3     1  UNL1        0.0739
     14 N         142.8308  140.1587  170.9077 N.3     1  UNL1       -0.2972
     15 C         143.0438  140.9905  169.6778 C.3     1  UNL1        0.0739
     16 H         143.6872  139.9437  171.4184 H       1  UNL1        0.1233
     17 O         143.2634  138.7652  166.5872 O.3     1  UNL1       -0.4747
     18 C         143.9532  139.4904  162.1999 C.ar    1  UNL1        0.0002
     19 C         144.7396  140.2593  163.2199 C.ar    1  UNL1        0.0031
     20 C         144.5097  140.0176  164.6824 C.ar    1  UNL1        0.0369
     21 C         143.4934  139.0070  165.1248 C.ar    1  UNL1        0.1389
     22 C         142.7070  138.2381  164.1047 C.ar    1  UNL1        0.0369
     23 C         142.9369  138.4798  162.6423 C.ar    1  UNL1        0.0031
@<TRIPOS>BOND
     1    18    19   ar
     2    19    20   ar
     3    20    21   ar
     4    21    17    1
     5    17     1    1
     6     1     2    1
     7     2     3   ar
     8     3     4   ar
     9     4     5   ar
    10     5     6   ar
    11     6     7   ar
    12     7     8   ar
    13     8     9   ar
    14     9    10   ar
    15    10    11   ar
    16     1    12    1
    17    12    13    1
    18    13    14    1
    19    14    15    1
    20    21    22   ar
    21    22    23   ar
    22    23    18   ar
    23    11     2   ar
    24    15    12    1
    25    10     5   ar
    26    14    16    1
@<TRIPOS>MOLECULE
*****
 23 26 0 0 0
SMALL
GASTEIGER

@<TRIPOS>ATOM
      1 C         143.1898  142.4574  167.3143 C.3     1  UNL1        0.1907
      2 C         142.2483  141.6210  166.4992 C.ar    1  UNL1        0.0173
      3 C         140.9625  142.2103  165.9997 C.ar    1  UNL1       -0.0008
      4 C         140.0210  141.3740  165.1846 C.ar    1  UNL1       -0.0002
      5 C         140.3653  139.9485  164.8692 C.ar    1  UNL1       -0.0000
      6 C         139.4238  139.1123  164.0542 C.ar    1  UNL1       -0.0000
      7 C         139.7681  137.6868  163.7387 C.ar    1  UNL1       -0.0000
      8 C         141.0539  137.0976  164.2383 C.ar    1  UNL1       -0.0000
      9 C         141.9954  137.9339  165.0533 C.ar    1  UNL1       -0.0000
     10 C         141.6511  139.3593  165.3688 C.ar    1  UNL1       -0.0002
     11 C         142.5926  140.1956  166.1838 C.ar    1  UNL1       -0.0008
     12 C         143.0191  142.5448  168.8020 C.3     1  UNL1        0.0758
     13 C         141.8835  142.8847  169.7212 C.3     1  UNL1        0.0739
     14 N         142.7778  142.6684  170.9059 N.3     1  UNL1       -0.2972
     15 C         143.9133  142.3285  169.9867 C.3     1  UNL1        0.0739
     16 H         142.4882  141.9005  171.5116 H       1  UNL1        0.1233
     17 O         144.3018  143.2062  166.6417 O.3     1  UNL1       -0.4747
     18 C         144.4803  143.4132  162.1500 C.ar    1  UNL1        0.0002
     19 C         145.1284  142.2708  162.8744 C.ar    1  UNL1        0.0031
     20 C         145.0689  142.2018  164.3717 C.ar    1  UNL1        0.0369
     21 C         144.3613  143.2752  165.1445 C.ar    1  UNL1        0.1389
     22 C         143.7132  144.4176  164.4199 C.ar    1  UNL1        0.0369
     23 C         143.7727  144.4866  162.9227 C.ar    1  UNL1        0.0031
@<TRIPOS>BOND
     1    18    19   ar
     2    19    20   ar
     3    20    21   ar
     4    21    17    1
     5    17     1    1
     6     1     2    1
     7     2     3   ar
     8     3     4   ar
     9     4     5   ar
    10     5     6   ar
    11     6     7   ar
    12     7     8   ar
    13     8     9   ar
    14     9    10   ar
    15    10    11   ar
    16     1    12    1
    17    12    13    1
    18    13    14    1
    19    14    15    1
    20    21    22   ar
    21    22    23   ar
    22    23    18   ar
    23    11     2   ar
    24    15    12    1
    25    10     5   ar
    26    14    16    1
@<TRIPOS>MOLECULE
*****
 23 26 0 0 0
SMALL
GASTEIGER

@<TRIPOS>ATOM
      1 C         142.7058  139.9886  167.4269 C.3     1  UNL1        0.1907
      2 C         142.2704  141.1491  166.5819 C.ar    1  UNL1        0.0173
      3 C         143.2933  142.0826  166.0056 C.ar    1  UNL1       -0.0008
      4 C         142.8580  143.2430  165.1607 C.ar    1  UNL1       -0.0002
      5 C         141.3998  143.4700  164.8921 C.ar    1  UNL1       -0.0000
      6 C         140.9645  144.6304  164.0472 C.ar    1  UNL1       -0.0000
      7 C         139.5063  144.8572  163.7786 C.ar    1  UNL1       -0.0000
      8 C         138.4834  143.9237  164.3550 C.ar    1  UNL1       -0.0000
      9 C         138.9187  142.7633  165.1999 C.ar    1  UNL1       -0.0000
     10 C         140.3769  142.5364  165.4684 C.ar    1  UNL1       -0.0002
     11 C         140.8122  141.3759  166.3134 C.ar    1  UNL1       -0.0008
     12 C         142.6793  140.0983  168.9226 C.3     1  UNL1        0.0758
     13 C         142.1809  139.2318  170.0411 C.3     1  UNL1        0.0739
     14 N         142.6419  140.2534  171.0379 N.3     1  UNL1       -0.2972
     15 C         143.1403  141.1199  169.9196 C.3     1  UNL1        0.0739
     16 H         143.3742  139.9218  171.6658 H       1  UNL1        0.1233
     17 O         143.1675  138.7185  166.7761 O.3     1  UNL1       -0.4747
     18 C         142.3561  138.0048  162.4078 C.ar    1  UNL1        0.0002
     19 C         141.3760  137.5311  163.4398 C.ar    1  UNL1        0.0031
     20 C         141.6465  137.7690  164.8960 C.ar    1  UNL1        0.0369
     21 C         142.8970  138.4806  165.3200 C.ar    1  UNL1        0.1389
     22 C         143.8771  138.9543  164.2879 C.ar    1  UNL1        0.0369
     23 C         143.6066  138.7164  162.8318 C.ar    1  UNL1        0.0031
@<TRIPOS>BOND
     1    18    19   ar
     2    19    20   ar
     3    20    21   ar
     4    21    17    1
     5    17     1    1
     6     1     2    1
     7     2     3   ar
     8     3     4   ar
     9     4     5   ar
    10     5     6   ar
    11     6     7   ar
    12     7     8   ar
    13     8     9   ar
    14     9    10   ar
    15    10    11   ar
    16     1    12    1
    17    12    13    1
    18    13    14    1
    19    14    15    1
    20    21    22   ar
    21    22    23   ar
    22    23    18   ar
    23    11     2   ar
    24    15    12    1
    25    10     5   ar
    26    14    16    1
