@<TRIPOS>MOLECULE
*****
 32 34 0 0 0
SMALL
GASTEIGER

@<TRIPOS>ATOM
      1 C         139.9831  140.6726  167.5604 C.3     1  UNL1        0.0161
      2 C         141.1470  140.4750  168.4857 C.3     1  UNL1        0.1083
      3 C         142.0695  140.3861  167.3064 C.ar    1  UNL1       -0.0127
      4 C         142.6145  139.0555  166.8791 C.ar    1  UNL1       -0.0033
      5 C         143.5370  138.9666  165.6996 C.ar    1  UNL1        0.0064
      6 C         143.9146  140.2082  164.9475 C.ar    1  UNL1        0.0345
      7 BR        144.8372  140.1193  163.7681 Br      1  UNL1       -0.0490
      8 C         143.3697  141.5388  165.3748 C.ar    1  UNL1        0.0064
      9 C         142.4472  141.6278  166.5542 C.ar    1  UNL1       -0.0033
     10 C         142.3109  140.2774  169.4111 C.3     1  UNL1        0.0138
     11 C         143.1322  141.4551  169.8452 C.3     1  UNL1        0.0009
     12 C         142.6535  138.9021  169.9023 C.3     1  UNL1        0.0009
     13 C         140.2245  140.5640  169.6651 C.2     1  UNL1        0.3199
     14 O         140.1155  139.4128  170.6206 O.2     1  UNL1       -0.2498
     15 C         139.9439  142.9039  170.7587 C.3     1  UNL1        0.2556
     16 O         139.4109  141.8041  169.8891 O.3     1  UNL1       -0.4442
     17 C         139.0573  139.5299  167.2651 C.3     1  UNL1        0.0182
     18 C         138.7006  139.2012  165.8457 C.3     1  UNL1        0.0722
     19 N         138.9609  140.1993  164.7565 N.3     1  UNL1       -0.2698
     20 C         140.2249  140.1199  163.9529 C.3     1  UNL1        0.0938
     21 C         140.4851  141.1179  162.8638 C.3     1  UNL1        0.1082
     22 N         139.4813  142.1954  162.5784 N.pl3   1  UNL1       -0.3023
     23 C         138.2173  142.2748  163.3821 C.3     1  UNL1        0.1082
     24 C         137.9571  141.2768  164.4711 C.3     1  UNL1        0.0938
     25 C         139.7416  143.1935  161.4892 C.ar    1  UNL1        0.0824
     26 C         139.5311  142.8099  160.0545 C.ar    1  UNL1        0.0176
     27 C         139.7913  143.8080  158.9654 C.ar    1  UNL1        0.0015
     28 C         140.2622  145.1896  159.3110 C.ar    1  UNL1        0.0032
     29 C         140.4728  145.5731  160.7459 C.ar    1  UNL1        0.0382
     30 C         140.2125  144.5751  161.8349 C.ar    1  UNL1        0.1519
     31 O         140.4231  144.9586  163.2697 O.3     1  UNL1       -0.4702
     32 C         141.7846  144.8351  163.8870 C.3     1  UNL1        0.2525
@<TRIPOS>BOND
     1    15    16    1
     2    16    13    1
     3    13    14    2
     4    13     2    1
     5     2     1    1
     6     1    17    1
     7    17    18    1
     8    18    19    1
     9    19    20    1
    10    20    21    1
    11    21    22    1
    12    22    25    1
    13    25    26   ar
    14    26    27   ar
    15    27    28   ar
    16    28    29   ar
    17    29    30   ar
    18    30    31    1
    19    31    32    1
    20    22    23    1
    21    23    24    1
    22     2     3    1
    23     3     4   ar
    24     4     5   ar
    25     5     6   ar
    26     6     7    1
    27     6     8   ar
    28     8     9   ar
    29     2    10    1
    30    10    11    1
    31    10    12    1
    32    24    19    1
    33     9     3   ar
    34    30    25   ar
@<TRIPOS>MOLECULE
*****
 32 34 0 0 0
SMALL
GASTEIGER

@<TRIPOS>ATOM
      1 C         140.1385  141.0672  168.1959 C.3     1  UNL1        0.0161
      2 C         141.4280  141.0821  168.9620 C.3     1  UNL1        0.1083
      3 C         142.1738  140.7136  167.7139 C.ar    1  UNL1       -0.0127
      4 C         142.6305  139.3005  167.5027 C.ar    1  UNL1       -0.0033
      5 C         143.3764  138.9321  166.2545 C.ar    1  UNL1        0.0064
      6 C         143.6656  139.9766  165.2176 C.ar    1  UNL1        0.0345
      7 BR        144.4116  139.6082  163.9694 Br      1  UNL1       -0.0490
      8 C         143.2090  141.3897  165.4289 C.ar    1  UNL1        0.0064
      9 C         142.4631  141.7582  166.6770 C.ar    1  UNL1       -0.0033
     10 C         142.7174  141.0970  169.7282 C.3     1  UNL1        0.0138
     11 C         143.6858  142.2277  169.5448 C.3     1  UNL1        0.0009
     12 C         143.0385  139.9811  170.6778 C.3     1  UNL1        0.0009
     13 C         140.6821  141.4506  170.2102 C.2     1  UNL1        0.3199
     14 O         139.8231  140.4319  170.8989 O.2     1  UNL1       -0.2498
     15 C         140.4103  144.0191  169.9291 C.3     1  UNL1        0.2556
     16 O         140.7952  142.8378  170.7696 O.3     1  UNL1       -0.4442
     17 C         139.5081  139.7607  167.8139 C.3     1  UNL1        0.0182
     18 C         138.6070  139.6843  166.6172 C.3     1  UNL1        0.0722
     19 N         139.1833  139.4039  165.2610 N.3     1  UNL1       -0.2698
     20 C         139.1227  138.0173  164.6923 C.3     1  UNL1        0.0938
     21 C         139.6990  137.7369  163.3362 C.3     1  UNL1        0.1082
     22 N         140.3360  138.8433  162.5487 N.pl3   1  UNL1       -0.3023
     23 C         140.3967  140.2300  163.1173 C.3     1  UNL1        0.1082
     24 C         139.8203  140.5103  164.4734 C.3     1  UNL1        0.0938
     25 C         140.9123  138.5629  161.1924 C.ar    1  UNL1        0.0824
     26 C         142.3388  138.1182  161.0611 C.ar    1  UNL1        0.0176
     27 C         142.9152  137.8378  159.7048 C.ar    1  UNL1        0.0015
     28 C         142.0650  138.0021  158.4800 C.ar    1  UNL1        0.0032
     29 C         140.6384  138.4468  158.6115 C.ar    1  UNL1        0.0382
     30 C         140.0621  138.7272  159.9676 C.ar    1  UNL1        0.1519
     31 O         138.6355  139.1719  160.0991 O.3     1  UNL1       -0.4702
     32 C         138.3032  140.6346  160.1018 C.3     1  UNL1        0.2525
@<TRIPOS>BOND
     1    15    16    1
     2    16    13    1
     3    13    14    2
     4    13     2    1
     5     2     1    1
     6     1    17    1
     7    17    18    1
     8    18    19    1
     9    19    20    1
    10    20    21    1
    11    21    22    1
    12    22    25    1
    13    25    26   ar
    14    26    27   ar
    15    27    28   ar
    16    28    29   ar
    17    29    30   ar
    18    30    31    1
    19    31    32    1
    20    22    23    1
    21    23    24    1
    22     2     3    1
    23     3     4   ar
    24     4     5   ar
    25     5     6   ar
    26     6     7    1
    27     6     8   ar
    28     8     9   ar
    29     2    10    1
    30    10    11    1
    31    10    12    1
    32    24    19    1
    33     9     3   ar
    34    30    25   ar
@<TRIPOS>MOLECULE
*****
 32 34 0 0 0
SMALL
GASTEIGER

@<TRIPOS>ATOM
      1 C         139.9554  140.6388  167.6262 C.3     1  UNL1        0.0161
      2 C         141.1223  140.4258  168.5443 C.3     1  UNL1        0.1083
      3 C         142.0384  140.3389  167.3598 C.ar    1  UNL1       -0.0127
      4 C         142.5786  139.0086  166.9255 C.ar    1  UNL1       -0.0033
      5 C         143.4948  138.9218  165.7409 C.ar    1  UNL1        0.0064
      6 C         143.8707  140.1651  164.9907 C.ar    1  UNL1        0.0345
      7 BR        144.7868  140.0782  163.8061 Br      1  UNL1       -0.0490
      8 C         143.3304  141.4953  165.4250 C.ar    1  UNL1        0.0064
      9 C         142.4143  141.5822  166.6096 C.ar    1  UNL1       -0.0033
     10 C         142.2892  140.2129  169.4625 C.3     1  UNL1        0.0138
     11 C         142.6409  138.8282  169.9196 C.3     1  UNL1        0.0009
     12 C         143.1044  141.3846  169.9235 C.3     1  UNL1        0.0009
     13 C         140.2062  140.5127  169.7289 C.2     1  UNL1        0.3199
     14 O         140.1225  139.3707  170.6978 O.2     1  UNL1       -0.2498
     15 C         140.0170  143.0087  170.4249 C.3     1  UNL1        0.2556
     16 O         139.3736  141.7417  169.9445 O.3     1  UNL1       -0.4442
     17 C         139.0055  139.5119  167.3467 C.3     1  UNL1        0.0182
     18 C         138.7115  139.1125  165.9311 C.3     1  UNL1        0.0722
     19 N         138.9928  140.0670  164.8087 N.3     1  UNL1       -0.2698
     20 C         138.0231  141.1692  164.5007 C.3     1  UNL1        0.0938
     21 C         138.3044  142.1236  163.3782 C.3     1  UNL1        0.1082
     22 N         139.5553  141.9759  162.5638 N.pl3   1  UNL1       -0.3023
     23 C         140.5250  140.8737  162.8718 C.3     1  UNL1        0.1082
     24 C         140.2437  139.9193  163.9943 C.3     1  UNL1        0.0938
     25 C         139.8366  142.9304  161.4413 C.ar    1  UNL1        0.0824
     26 C         140.6749  144.1499  161.6862 C.ar    1  UNL1        0.0176
     27 C         140.9561  145.1044  160.5637 C.ar    1  UNL1        0.0015
     28 C         140.3991  144.8393  159.1964 C.ar    1  UNL1        0.0032
     29 C         139.5608  143.6197  158.9516 C.ar    1  UNL1        0.0382
     30 C         139.2796  142.6652  160.0741 C.ar    1  UNL1        0.1519
     31 O         138.4413  141.4456  159.8293 O.3     1  UNL1       -0.4702
     32 C         139.0841  140.1771  159.3522 C.3     1  UNL1        0.2525
@<TRIPOS>BOND
     1    15    16    1
     2    16    13    1
     3    13    14    2
     4    13     2    1
     5     2     1    1
     6     1    17    1
     7    17    18    1
     8    18    19    1
     9    19    20    1
    10    20    21    1
    11    21    22    1
    12    22    25    1
    13    25    26   ar
    14    26    27   ar
    15    27    28   ar
    16    28    29   ar
    17    29    30   ar
    18    30    31    1
    19    31    32    1
    20    22    23    1
    21    23    24    1
    22     2     3    1
    23     3     4   ar
    24     4     5   ar
    25     5     6   ar
    26     6     7    1
    27     6     8   ar
    28     8     9   ar
    29     2    10    1
    30    10    11    1
    31    10    12    1
    32    24    19    1
    33     9     3   ar
    34    30    25   ar
@<TRIPOS>MOLECULE
*****
 32 34 0 0 0
SMALL
GASTEIGER

@<TRIPOS>ATOM
      1 C         140.3665  140.1357  167.4796 C.3     1  UNL1        0.0161
      2 C         140.7794  141.3081  168.3192 C.3     1  UNL1        0.1083
      3 C         141.1570  142.0630  167.0793 C.ar    1  UNL1       -0.0127
      4 C         142.5670  142.0116  166.5700 C.ar    1  UNL1       -0.0033
      5 C         142.9445  142.7666  165.3300 C.ar    1  UNL1        0.0064
      6 C         141.9121  143.5730  164.5994 C.ar    1  UNL1        0.0345
      7 BR        142.2896  144.3280  163.3593 Br      1  UNL1       -0.0490
      8 C         140.5021  143.6243  165.1086 C.ar    1  UNL1        0.0064
      9 C         140.1246  142.8694  166.3485 C.ar    1  UNL1       -0.0033
     10 C         141.1924  142.4805  169.1588 C.3     1  UNL1        0.0138
     11 C         142.5493  142.5045  169.7977 C.3     1  UNL1        0.0009
     12 C         140.2485  143.6289  169.3595 C.3     1  UNL1        0.0009
     13 C         140.4019  140.5531  169.5591 C.2     1  UNL1        0.3199
     14 O         139.3609  141.1067  170.4865 O.2     1  UNL1       -0.2498
     15 C         142.5445  139.1930  170.1153 C.3     1  UNL1        0.2556
     16 O         141.0653  139.2446  169.8718 O.3     1  UNL1       -0.4442
     17 C         138.9605  139.6181  167.5540 C.3     1  UNL1        0.0182
     18 C         138.1299  139.5219  166.3087 C.3     1  UNL1        0.0722
     19 N         138.7888  139.2669  164.9855 N.3     1  UNL1       -0.2698
     20 C         139.2720  137.8892  164.6413 C.3     1  UNL1        0.0938
     21 C         139.9309  137.6343  163.3181 C.3     1  UNL1        0.1082
     22 N         140.1066  138.7571  162.3391 N.pl3   1  UNL1       -0.3023
     23 C         139.6235  140.1348  162.6833 C.3     1  UNL1        0.1082
     24 C         138.9646  140.3897  164.0064 C.3     1  UNL1        0.0938
     25 C         140.7656  138.5021  161.0159 C.ar    1  UNL1        0.0824
     26 C         139.9878  138.6750  159.7450 C.ar    1  UNL1        0.0176
     27 C         140.6467  138.4200  158.4218 C.ar    1  UNL1        0.0015
     28 C         142.0834  137.9922  158.3695 C.ar    1  UNL1        0.0032
     29 C         142.8612  137.8192  159.6404 C.ar    1  UNL1        0.0382
     30 C         142.2023  138.0742  160.9636 C.ar    1  UNL1        0.1519
     31 O         142.9801  137.9013  162.2345 O.3     1  UNL1       -0.4702
     32 C         144.0163  138.9138  162.6233 C.3     1  UNL1        0.2525
@<TRIPOS>BOND
     1    15    16    1
     2    16    13    1
     3    13    14    2
     4    13     2    1
     5     2     1    1
     6     1    17    1
     7    17    18    1
     8    18    19    1
     9    19    20    1
    10    20    21    1
    11    21    22    1
    12    22    25    1
    13    25    26   ar
    14    26    27   ar
    15    27    28   ar
    16    28    29   ar
    17    29    30   ar
    18    30    31    1
    19    31    32    1
    20    22    23    1
    21    23    24    1
    22     2     3    1
    23     3     4   ar
    24     4     5   ar
    25     5     6   ar
    26     6     7    1
    27     6     8   ar
    28     8     9   ar
    29     2    10    1
    30    10    11    1
    31    10    12    1
    32    24    19    1
    33     9     3   ar
    34    30    25   ar
@<TRIPOS>MOLECULE
*****
 32 34 0 0 0
SMALL
GASTEIGER

@<TRIPOS>ATOM
      1 C         141.9319  139.8930  167.2131 C.3     1  UNL1        0.0161
      2 C         142.1398  141.0675  168.1227 C.3     1  UNL1        0.1083
      3 C         142.2600  141.9696  166.9304 C.ar    1  UNL1       -0.0127
      4 C         143.6128  142.4170  166.4617 C.ar    1  UNL1       -0.0033
      5 C         143.7329  143.3192  165.2693 C.ar    1  UNL1        0.0064
      6 C         142.5002  143.7740  164.5458 C.ar    1  UNL1        0.0345
      7 BR        142.6203  144.6762  163.3534 Br      1  UNL1       -0.0490
      8 C         141.1474  143.3267  165.0145 C.ar    1  UNL1        0.0064
      9 C         141.0272  142.4245  166.2068 C.ar    1  UNL1       -0.0033
     10 C         142.3477  142.2419  169.0323 C.3     1  UNL1        0.0138
     11 C         141.1803  143.0915  169.4390 C.3     1  UNL1        0.0009
     12 C         143.7231  142.5668  169.5353 C.3     1  UNL1        0.0009
     13 C         142.0197  140.1653  169.3150 C.2     1  UNL1        0.3199
     14 O         143.2319  139.8448  170.1382 O.2     1  UNL1       -0.2498
     15 C         140.0220  139.9872  170.9666 C.3     1  UNL1        0.2556
     16 O         140.6872  139.5836  169.6842 O.3     1  UNL1       -0.4442
     17 C         143.0236  138.8798  167.0351 C.3     1  UNL1        0.0182
     18 C         143.4558  138.4775  165.6562 C.3     1  UNL1        0.0722
     19 N         142.5748  138.7716  164.4783 N.3     1  UNL1       -0.2698
     20 C         142.6756  140.0942  163.7780 C.3     1  UNL1        0.0938
     21 C         141.7946  140.3882  162.6002 C.3     1  UNL1        0.1082
     22 N         140.8128  139.3596  162.1226 N.pl3   1  UNL1       -0.3023
     23 C         140.7120  138.0370  162.8229 C.3     1  UNL1        0.1082
     24 C         141.5930  137.7430  164.0007 C.3     1  UNL1        0.0938
     25 C         139.9318  139.6537  160.9447 C.ar    1  UNL1        0.0824
     26 C         140.5281  139.7740  159.5736 C.ar    1  UNL1        0.0176
     27 C         139.6471  140.0681  158.3957 C.ar    1  UNL1        0.0015
     28 C         138.1698  140.2418  158.5890 C.ar    1  UNL1        0.0032
     29 C         137.5735  140.1215  159.9601 C.ar    1  UNL1        0.0382
     30 C         138.4545  139.8275  161.1380 C.ar    1  UNL1        0.1519
     31 O         137.8582  139.7071  162.5091 O.3     1  UNL1       -0.4702
     32 C         137.7664  140.9137  163.3955 C.3     1  UNL1        0.2525
@<TRIPOS>BOND
     1    15    16    1
     2    16    13    1
     3    13    14    2
     4    13     2    1
     5     2     1    1
     6     1    17    1
     7    17    18    1
     8    18    19    1
     9    19    20    1
    10    20    21    1
    11    21    22    1
    12    22    25    1
    13    25    26   ar
    14    26    27   ar
    15    27    28   ar
    16    28    29   ar
    17    29    30   ar
    18    30    31    1
    19    31    32    1
    20    22    23    1
    21    23    24    1
    22     2     3    1
    23     3     4   ar
    24     4     5   ar
    25     5     6   ar
    26     6     7    1
    27     6     8   ar
    28     8     9   ar
    29     2    10    1
    30    10    11    1
    31    10    12    1
    32    24    19    1
    33     9     3   ar
    34    30    25   ar
@<TRIPOS>MOLECULE
*****
 32 34 0 0 0
SMALL
GASTEIGER

@<TRIPOS>ATOM
      1 C         141.8810  139.5974  167.5513 C.3     1  UNL1        0.0161
      2 C         140.9912  140.4986  168.3551 C.3     1  UNL1        0.1083
      3 C         140.1255  140.7186  167.1500 C.ar    1  UNL1       -0.0127
      4 C         140.2394  141.9930  166.3672 C.ar    1  UNL1       -0.0033
      5 C         139.3736  142.2129  165.1621 C.ar    1  UNL1        0.0064
      6 C         138.3941  141.1584  164.7399 C.ar    1  UNL1        0.0345
      7 BR        137.5283  141.3783  163.5348 Br      1  UNL1       -0.0490
      8 C         138.2802  139.8839  165.5227 C.ar    1  UNL1        0.0064
      9 C         139.1459  139.6640  166.7277 C.ar    1  UNL1       -0.0033
     10 C         140.1014  141.3998  169.1588 C.3     1  UNL1        0.0138
     11 C         140.2740  142.8879  169.0812 C.3     1  UNL1        0.0009
     12 C         139.0389  140.8130  170.0402 C.3     1  UNL1        0.0009
     13 C         141.8569  140.2787  169.5601 C.2     1  UNL1        0.3199
     14 O         142.1433  138.8845  170.0335 O.2     1  UNL1       -0.2498
     15 C         143.7343  142.0529  169.8390 C.3     1  UNL1        0.2556
     16 O         142.4362  141.4531  170.2918 O.3     1  UNL1       -0.4442
     17 C         143.0735  140.1626  166.8381 C.3     1  UNL1        0.0182
     18 C         143.3493  139.7757  165.4154 C.3     1  UNL1        0.0722
     19 N         142.9791  140.7073  164.2994 N.3     1  UNL1       -0.2698
     20 C         143.6672  142.0338  164.1705 C.3     1  UNL1        0.0938
     21 C         143.2970  142.9654  163.0546 C.3     1  UNL1        0.1082
     22 N         142.2387  142.5703  162.0677 N.pl3   1  UNL1       -0.3023
     23 C         141.5506  141.2437  162.1967 C.3     1  UNL1        0.1082
     24 C         141.9208  140.3122  163.3126 C.3     1  UNL1        0.0938
     25 C         141.8685  143.5019  160.9518 C.ar    1  UNL1        0.0824
     26 C         142.4893  143.3331  159.5968 C.ar    1  UNL1        0.0176
     27 C         142.1191  144.2647  158.4809 C.ar    1  UNL1        0.0015
     28 C         141.1281  145.3650  158.7201 C.ar    1  UNL1        0.0032
     29 C         140.5073  145.5338  160.0752 C.ar    1  UNL1        0.0382
     30 C         140.8775  144.6022  161.1910 C.ar    1  UNL1        0.1519
     31 O         140.2567  144.7709  162.5461 O.3     1  UNL1       -0.4702
     32 C         138.7737  144.9560  162.6739 C.3     1  UNL1        0.2525
@<TRIPOS>BOND
     1    15    16    1
     2    16    13    1
     3    13    14    2
     4    13     2    1
     5     2     1    1
     6     1    17    1
     7    17    18    1
     8    18    19    1
     9    19    20    1
    10    20    21    1
    11    21    22    1
    12    22    25    1
    13    25    26   ar
    14    26    27   ar
    15    27    28   ar
    16    28    29   ar
    17    29    30   ar
    18    30    31    1
    19    31    32    1
    20    22    23    1
    21    23    24    1
    22     2     3    1
    23     3     4   ar
    24     4     5   ar
    25     5     6   ar
    26     6     7    1
    27     6     8   ar
    28     8     9   ar
    29     2    10    1
    30    10    11    1
    31    10    12    1
    32    24    19    1
    33     9     3   ar
    34    30    25   ar
@<TRIPOS>MOLECULE
*****
 32 34 0 0 0
SMALL
GASTEIGER

@<TRIPOS>ATOM
      1 C         142.4733  140.5508  167.1370 C.3     1  UNL1        0.0161
      2 C         141.4109  141.0751  168.0570 C.3     1  UNL1        0.1083
      3 C         140.4446  141.1281  166.9109 C.ar    1  UNL1       -0.0127
      4 C         139.5925  139.9354  166.5926 C.ar    1  UNL1       -0.0033
      5 C         138.6262  139.9884  165.4465 C.ar    1  UNL1        0.0064
      6 C         138.5120  141.2341  164.6188 C.ar    1  UNL1        0.0345
      7 BR        137.5457  141.2871  163.4727 Br      1  UNL1       -0.0490
      8 C         139.3641  142.4268  164.9371 C.ar    1  UNL1        0.0064
      9 C         140.3304  142.3739  166.0832 C.ar    1  UNL1       -0.0033
     10 C         140.3485  141.5994  168.9770 C.3     1  UNL1        0.0138
     11 C         139.3123  140.6686  169.5337 C.3     1  UNL1        0.0009
     12 C         140.3223  143.0546  169.3403 C.3     1  UNL1        0.0009
     13 C         142.3772  141.0221  169.2030 C.2     1  UNL1        0.3199
     14 O         142.1456  140.0665  170.3357 O.2     1  UNL1       -0.2498
     15 C         143.7627  142.9056  170.3358 C.3     1  UNL1        0.2556
     16 O         143.5751  141.9249  169.2164 O.3     1  UNL1       -0.4442
     17 C         142.9670  139.1423  167.2869 C.3     1  UNL1        0.0182
     18 C         143.4121  138.3711  166.0799 C.3     1  UNL1        0.0722
     19 N         143.4476  139.0364  164.7359 N.3     1  UNL1       -0.2698
     20 C         144.6917  139.7393  164.2796 C.3     1  UNL1        0.0938
     21 C         144.7271  140.4045  162.9357 C.3     1  UNL1        0.1082
     22 N         143.5186  140.3668  162.0480 N.pl3   1  UNL1       -0.3023
     23 C         142.2745  139.6639  162.5043 C.3     1  UNL1        0.1082
     24 C         142.2390  138.9987  163.8482 C.3     1  UNL1        0.0938
     25 C         143.5541  141.0321  160.7041 C.ar    1  UNL1        0.0824
     26 C         143.3943  142.5199  160.5992 C.ar    1  UNL1        0.0176
     27 C         143.4298  143.1851  159.2552 C.ar    1  UNL1        0.0015
     28 C         143.6251  142.3626  158.0161 C.ar    1  UNL1        0.0032
     29 C         143.7849  140.8748  158.1211 C.ar    1  UNL1        0.0382
     30 C         143.7494  140.2096  159.4650 C.ar    1  UNL1        0.1519
     31 O         143.9091  138.7217  159.5699 O.3     1  UNL1       -0.4702
     32 C         142.7521  137.8194  159.2585 C.3     1  UNL1        0.2525
@<TRIPOS>BOND
     1    15    16    1
     2    16    13    1
     3    13    14    2
     4    13     2    1
     5     2     1    1
     6     1    17    1
     7    17    18    1
     8    18    19    1
     9    19    20    1
    10    20    21    1
    11    21    22    1
    12    22    25    1
    13    25    26   ar
    14    26    27   ar
    15    27    28   ar
    16    28    29   ar
    17    29    30   ar
    18    30    31    1
    19    31    32    1
    20    22    23    1
    21    23    24    1
    22     2     3    1
    23     3     4   ar
    24     4     5   ar
    25     5     6   ar
    26     6     7    1
    27     6     8   ar
    28     8     9   ar
    29     2    10    1
    30    10    11    1
    31    10    12    1
    32    24    19    1
    33     9     3   ar
    34    30    25   ar
@<TRIPOS>MOLECULE
*****
 32 34 0 0 0
SMALL
GASTEIGER

@<TRIPOS>ATOM
      1 C         141.9805  139.8485  167.1884 C.3     1  UNL1        0.0161
      2 C         142.1792  141.0277  168.0939 C.3     1  UNL1        0.1083
      3 C         142.2977  141.9258  166.8983 C.ar    1  UNL1       -0.0127
      4 C         141.0740  142.2949  166.1133 C.ar    1  UNL1       -0.0033
      5 C         141.1925  143.1930  164.9177 C.ar    1  UNL1        0.0064
      6 C         142.5348  143.7219  164.5071 C.ar    1  UNL1        0.0345
      7 BR        142.6533  144.6200  163.3115 Br      1  UNL1       -0.0490
      8 C         143.7585  143.3528  165.2922 C.ar    1  UNL1        0.0064
      9 C         143.6400  142.4548  166.4877 C.ar    1  UNL1       -0.0033
     10 C         142.3779  142.2069  168.9993 C.3     1  UNL1        0.0138
     11 C         143.7472  142.5313  169.5188 C.3     1  UNL1        0.0009
     12 C         141.2073  143.0618  169.3854 C.3     1  UNL1        0.0009
     13 C         142.0607  140.1296  169.2894 C.2     1  UNL1        0.3199
     14 O         143.2717  139.8220  170.1194 O.2     1  UNL1       -0.2498
     15 C         140.0408  139.9687  170.9155 C.3     1  UNL1        0.2556
     16 O         140.7311  139.5391  169.6550 O.3     1  UNL1       -0.4442
     17 C         143.1019  138.8779  166.9638 C.3     1  UNL1        0.0182
     18 C         143.6603  138.6828  165.5854 C.3     1  UNL1        0.0722
     19 N         142.7997  138.9408  164.3841 N.3     1  UNL1       -0.2698
     20 C         141.7256  137.9639  164.0073 C.3     1  UNL1        0.0938
     21 C         140.8651  138.2219  162.8061 C.3     1  UNL1        0.1082
     22 N         141.0787  139.4567  161.9817 N.pl3   1  UNL1       -0.3023
     23 C         142.1528  140.4336  162.3585 C.3     1  UNL1        0.1082
     24 C         143.0133  140.1756  163.5597 C.3     1  UNL1        0.0938
     25 C         140.2181  139.7147  160.7805 C.ar    1  UNL1        0.0824
     26 C         139.0041  140.5874  160.9010 C.ar    1  UNL1        0.0176
     27 C         138.1435  140.8453  159.6998 C.ar    1  UNL1        0.0015
     28 C         138.4970  140.2305  158.3780 C.ar    1  UNL1        0.0032
     29 C         139.7111  139.3578  158.2575 C.ar    1  UNL1        0.0382
     30 C         140.5716  139.0999  159.4587 C.ar    1  UNL1        0.1519
     31 O         141.7857  138.2272  159.3382 O.3     1  UNL1       -0.4702
     32 C         143.1181  138.8361  159.0158 C.3     1  UNL1        0.2525
@<TRIPOS>BOND
     1    15    16    1
     2    16    13    1
     3    13    14    2
     4    13     2    1
     5     2     1    1
     6     1    17    1
     7    17    18    1
     8    18    19    1
     9    19    20    1
    10    20    21    1
    11    21    22    1
    12    22    25    1
    13    25    26   ar
    14    26    27   ar
    15    27    28   ar
    16    28    29   ar
    17    29    30   ar
    18    30    31    1
    19    31    32    1
    20    22    23    1
    21    23    24    1
    22     2     3    1
    23     3     4   ar
    24     4     5   ar
    25     5     6   ar
    26     6     7    1
    27     6     8   ar
    28     8     9   ar
    29     2    10    1
    30    10    11    1
    31    10    12    1
    32    24    19    1
    33     9     3   ar
    34    30    25   ar
@<TRIPOS>MOLECULE
*****
 32 34 0 0 0
SMALL
GASTEIGER

@<TRIPOS>ATOM
      1 C         144.3850  142.9828  161.2664 C.3     1  UNL1        0.0161
      2 C         143.6580  141.9240  160.4916 C.3     1  UNL1        0.1083
      3 C         143.5353  141.0970  161.7370 C.ar    1  UNL1       -0.0127
      4 C         144.7648  140.5428  162.3935 C.ar    1  UNL1       -0.0033
      5 C         144.6420  139.7158  163.6390 C.ar    1  UNL1        0.0064
      6 C         143.2897  139.4430  164.2278 C.ar    1  UNL1        0.0345
      7 BR        143.1669  138.6161  165.4733 Br      1  UNL1       -0.0490
      8 C         142.0602  139.9973  163.5714 C.ar    1  UNL1        0.0064
      9 C         142.1829  140.8242  162.3260 C.ar    1  UNL1       -0.0033
     10 C         142.9310  140.8651  159.7169 C.3     1  UNL1        0.0138
     11 C         143.5996  139.5533  159.4302 C.3     1  UNL1        0.0009
     12 C         141.5353  141.1180  159.2288 C.3     1  UNL1        0.0009
     13 C         143.7808  142.7509  159.2462 C.2     1  UNL1        0.3199
     14 O         144.7156  142.3260  158.1529 O.2     1  UNL1       -0.2498
     15 C         142.3595  144.3452  157.7669 C.3     1  UNL1        0.2556
     16 O         142.9686  144.0029  159.0942 O.3     1  UNL1       -0.4442
     17 C         143.6144  143.9733  162.0880 C.3     1  UNL1        0.0182
     18 C         143.9694  144.1899  163.5292 C.3     1  UNL1        0.0722
     19 N         143.1244  143.5821  164.6093 N.3     1  UNL1       -0.2698
     20 C         141.6351  143.7592  164.5854 C.3     1  UNL1        0.0938
     21 C         140.7901  143.1514  165.6655 C.3     1  UNL1        0.1082
     22 N         141.4345  142.3666  166.7695 N.pl3   1  UNL1       -0.3023
     23 C         142.9238  142.1896  166.7935 C.3     1  UNL1        0.1082
     24 C         143.7687  142.7973  165.7134 C.3     1  UNL1        0.0938
     25 C         140.5894  141.7589  167.8497 C.ar    1  UNL1        0.0824
     26 C         140.4667  142.4419  169.1795 C.ar    1  UNL1        0.0176
     27 C         139.6216  141.8342  170.2596 C.ar    1  UNL1        0.0015
     28 C         138.8994  140.5434  170.0099 C.ar    1  UNL1        0.0032
     29 C         139.0222  139.8604  168.6800 C.ar    1  UNL1        0.0382
     30 C         139.8672  140.4682  167.6000 C.ar    1  UNL1        0.1519
     31 O         139.9900  139.7852  166.2701 O.3     1  UNL1       -0.4702
     32 C         138.7772  139.6007  165.4069 C.3     1  UNL1        0.2525
@<TRIPOS>BOND
     1    15    16    1
     2    16    13    1
     3    13    14    2
     4    13     2    1
     5     2     1    1
     6     1    17    1
     7    17    18    1
     8    18    19    1
     9    19    20    1
    10    20    21    1
    11    21    22    1
    12    22    25    1
    13    25    26   ar
    14    26    27   ar
    15    27    28   ar
    16    28    29   ar
    17    29    30   ar
    18    30    31    1
    19    31    32    1
    20    22    23    1
    21    23    24    1
    22     2     3    1
    23     3     4   ar
    24     4     5   ar
    25     5     6   ar
    26     6     7    1
    27     6     8   ar
    28     8     9   ar
    29     2    10    1
    30    10    11    1
    31    10    12    1
    32    24    19    1
    33     9     3   ar
    34    30    25   ar
