@<TRIPOS>MOLECULE
*****
 36 40 0 0 0
SMALL
GASTEIGER

@<TRIPOS>ATOM
      1 N         143.9955  141.0715  161.9984 N.3     1  UNL1       -0.2575
      2 C         143.7674  140.4429  163.3411 C.3     1  UNL1        0.1372
      3 C         144.6869  139.4797  164.0313 C.3     1  UNL1        0.0468
      4 C         144.0676  139.1087  165.3461 C.3     1  UNL1        0.0957
      5 N         142.7652  139.8426  165.4685 N.am    1  UNL1       -0.2743
      6 C         142.5796  140.6673  164.2293 C.2     1  UNL1        0.2404
      7 O         141.4115  141.5595  163.9307 O.2     1  UNL1       -0.2734
      8 C         141.8150  139.7655  166.6267 C.3     1  UNL1        0.1202
      9 C         141.7605  140.8815  167.6275 C.ar    1  UNL1       -0.0023
     10 C         142.9681  141.2056  168.4561 C.ar    1  UNL1       -0.0026
     11 C         142.9135  142.3216  169.4568 C.ar    1  UNL1       -0.0003
     12 C         141.6514  143.1136  169.6290 C.ar    1  UNL1       -0.0000
     13 C         140.4437  142.7896  168.8003 C.ar    1  UNL1       -0.0003
     14 C         140.4983  141.6735  167.7996 C.ar    1  UNL1       -0.0026
     15 C         143.9083  140.2369  160.7550 C.3     1  UNL1        0.1189
     16 N         141.5458  139.1191  160.1948 N.ar    1  UNL1       -0.3070
     17 C         140.4354  139.4130  159.2301 C.ar    1  UNL1        0.1786
     18 N         140.8194  140.6270  158.4373 N.ar    1  UNL1       -0.2226
     19 C         142.1671  141.0835  158.9120 C.ar    1  UNL1        0.1147
     20 C         142.6160  140.1515  159.9982 C.ar    1  UNL1        0.0741
     21 C         141.5799  137.9908  161.1827 C.3     1  UNL1        0.1340
     22 C         139.0212  138.1598  164.8804 C.ar    1  UNL1        0.0684
     23 C         138.6808  139.0112  163.6933 C.ar    1  UNL1        0.0100
     24 C         139.5337  138.9548  162.4608 C.ar    1  UNL1       -0.0017
     25 C         140.7270  138.0471  162.4153 C.ar    1  UNL1        0.0005
     26 C         141.0674  137.1957  163.6024 C.ar    1  UNL1       -0.0017
     27 C         140.2144  137.2520  164.8350 C.ar    1  UNL1        0.0100
     28 N         137.3153  138.2725  167.3457 N.1     1  UNL1       -0.1908
     29 C         138.1682  138.2161  166.1131 C.1     1  UNL1        0.1004
     30 C         144.3108  142.5346  161.8990 C.3     1  UNL1        0.1013
     31 C         143.2560  143.5525  162.2175 C.ar    1  UNL1        0.0131
     32 C         143.3416  144.3496  163.4852 C.ar    1  UNL1        0.0002
     33 C         142.2867  145.3675  163.8037 C.ar    1  UNL1        0.0204
     34 C         141.1465  145.5881  162.8544 C.ar    1  UNL1        0.0989
     35 N         141.0609  144.7909  161.5867 N.ar    1  UNL1       -0.2426
     36 C         142.1157  143.7730  161.2683 C.ar    1  UNL1        0.0959
@<TRIPOS>BOND
     1    28    29    3
     2    29    22    1
     3    22    23   ar
     4    23    24   ar
     5    24    25   ar
     6    25    21    1
     7    21    16    1
     8    16    17   ar
     9    17    18   ar
    10    18    19   ar
    11    19    20   ar
    12    20    15    1
    13    15     1    1
    14     1    30    1
    15    30    31    1
    16    31    32   ar
    17    32    33   ar
    18    33    34   ar
    19    34    35   ar
    20    35    36   ar
    21     2     1    1
    22     2     3    1
    23     3     4    1
    24     4     5    1
    25     5     8    1
    26     8     9    1
    27     9    10   ar
    28    10    11   ar
    29    11    12   ar
    30    12    13   ar
    31    13    14   ar
    32     5     6   am
    33     6     7    2
    34    25    26   ar
    35    26    27   ar
    36    27    22   ar
    37    20    16   ar
    38    36    31   ar
    39     6     2    1
    40    14     9   ar
@<TRIPOS>MOLECULE
*****
 36 40 0 0 0
SMALL
GASTEIGER

@<TRIPOS>ATOM
      1 N         139.2608  139.9284  166.9102 N.3     1  UNL1       -0.2575
      2 C         140.0625  141.0622  166.3429 C.3     1  UNL1        0.1372
      3 C         139.5503  142.4390  166.0396 C.3     1  UNL1        0.0468
      4 C         140.6883  143.2460  165.4886 C.3     1  UNL1        0.0957
      5 N         141.9039  142.3681  165.4514 N.am    1  UNL1       -0.2743
      6 C         141.5171  141.0183  165.9794 C.2     1  UNL1        0.2404
      7 O         142.4255  139.8329  166.1193 O.2     1  UNL1       -0.2734
      8 C         143.2670  142.7692  164.9706 C.3     1  UNL1        0.1202
      9 C         143.6926  142.4472  163.5688 C.ar    1  UNL1       -0.0023
     10 C         143.9490  141.0238  163.1711 C.ar    1  UNL1       -0.0026
     11 C         144.3745  140.7017  161.7692 C.ar    1  UNL1       -0.0003
     12 C         144.5437  141.8031  160.7651 C.ar    1  UNL1       -0.0000
     13 C         144.2874  143.2265  161.1627 C.ar    1  UNL1       -0.0003
     14 C         143.8618  143.5485  162.5646 C.ar    1  UNL1       -0.0026
     15 C         138.5814  138.9569  165.9912 C.3     1  UNL1        0.1189
     16 N         139.1220  138.6280  163.3942 N.ar    1  UNL1       -0.3070
     17 C         140.0988  137.8024  162.6103 C.ar    1  UNL1        0.1786
     18 N         140.9215  137.0104  163.5828 N.ar    1  UNL1       -0.2226
     19 C         140.4533  137.3464  164.9677 C.ar    1  UNL1        0.1147
     20 C         139.3411  138.3462  164.8511 C.ar    1  UNL1        0.0741
     21 C         138.1047  139.5700  162.8216 C.3     1  UNL1        0.1340
     22 C         139.1435  143.9063  162.2157 C.ar    1  UNL1        0.0684
     23 C         140.1404  142.8406  161.8682 C.ar    1  UNL1        0.0100
     24 C         139.7940  141.3952  162.0702 C.ar    1  UNL1       -0.0017
     25 C         138.4510  141.0155  162.6196 C.ar    1  UNL1        0.0005
     26 C         137.4542  142.0811  162.9671 C.ar    1  UNL1       -0.0017
     27 C         137.8005  143.5265  162.7651 C.ar    1  UNL1        0.0100
     28 N         139.8362  146.7972  161.8117 N.1     1  UNL1       -0.1908
     29 C         139.4899  145.3518  162.0137 C.1     1  UNL1        0.1004
     30 C         139.1387  139.7661  168.3964 C.3     1  UNL1        0.1013
     31 C         140.1091  140.4563  169.3085 C.ar    1  UNL1        0.0131
     32 C         141.4507  139.8425  169.5788 C.ar    1  UNL1        0.0002
     33 C         142.4212  140.5326  170.4909 C.ar    1  UNL1        0.0204
     34 C         142.0499  141.8366  171.1327 C.ar    1  UNL1        0.0989
     35 N         140.7083  142.4504  170.8623 N.ar    1  UNL1       -0.2426
     36 C         139.7378  141.7603  169.9502 C.ar    1  UNL1        0.0959
@<TRIPOS>BOND
     1    28    29    3
     2    29    22    1
     3    22    23   ar
     4    23    24   ar
     5    24    25   ar
     6    25    21    1
     7    21    16    1
     8    16    17   ar
     9    17    18   ar
    10    18    19   ar
    11    19    20   ar
    12    20    15    1
    13    15     1    1
    14     1    30    1
    15    30    31    1
    16    31    32   ar
    17    32    33   ar
    18    33    34   ar
    19    34    35   ar
    20    35    36   ar
    21     2     1    1
    22     2     3    1
    23     3     4    1
    24     4     5    1
    25     5     8    1
    26     8     9    1
    27     9    10   ar
    28    10    11   ar
    29    11    12   ar
    30    12    13   ar
    31    13    14   ar
    32     5     6   am
    33     6     7    2
    34    25    26   ar
    35    26    27   ar
    36    27    22   ar
    37    20    16   ar
    38    36    31   ar
    39     6     2    1
    40    14     9   ar
@<TRIPOS>MOLECULE
*****
 36 40 0 0 0
SMALL
GASTEIGER

@<TRIPOS>ATOM
      1 N         140.8437  144.8100  161.5676 N.3     1  UNL1       -0.2575
      2 C         139.7072  144.1587  162.2984 C.3     1  UNL1        0.1372
      3 C         138.8502  144.8016  163.3483 C.3     1  UNL1        0.0468
      4 C         137.8415  143.7905  163.8065 C.3     1  UNL1        0.0957
      5 N         138.0749  142.5226  163.0398 N.am    1  UNL1       -0.2743
      6 C         139.2280  142.7501  162.1078 C.2     1  UNL1        0.2404
      7 O         139.8013  141.7455  161.1528 O.2     1  UNL1       -0.2734
      8 C         137.2927  141.2503  163.1804 C.3     1  UNL1        0.1202
      9 C         137.9597  140.0142  163.7069 C.ar    1  UNL1       -0.0023
     10 C         138.1836  139.8530  165.1813 C.ar    1  UNL1       -0.0026
     11 C         138.8506  138.6169  165.7079 C.ar    1  UNL1       -0.0003
     12 C         139.2937  137.5421  164.7600 C.ar    1  UNL1       -0.0000
     13 C         139.0698  137.7033  163.2856 C.ar    1  UNL1       -0.0003
     14 C         138.4028  138.9394  162.7591 C.ar    1  UNL1       -0.0026
     15 C         142.2436  144.6813  162.0908 C.3     1  UNL1        0.1189
     16 N         143.6103  142.6286  163.1219 N.ar    1  UNL1       -0.3070
     17 C         144.2114  141.3702  162.5695 C.ar    1  UNL1        0.1786
     18 N         143.9373  141.3338  161.0953 N.ar    1  UNL1       -0.2226
     19 C         143.1668  142.5698  160.7365 C.ar    1  UNL1        0.1147
     20 C         142.9647  143.3700  161.9890 C.ar    1  UNL1        0.0741
     21 C         143.6482  143.0684  164.5555 C.3     1  UNL1        0.1340
     22 C         140.7892  141.2791  167.5343 C.ar    1  UNL1        0.0684
     23 C         142.2327  140.8712  167.5418 C.ar    1  UNL1        0.0100
     24 C         143.1856  141.4677  166.5488 C.ar    1  UNL1       -0.0017
     25 C         142.6952  142.4720  165.5484 C.ar    1  UNL1        0.0005
     26 C         141.2518  142.8798  165.5410 C.ar    1  UNL1       -0.0017
     27 C         140.2987  142.2833  166.5339 C.ar    1  UNL1        0.0100
     28 N         138.8831  140.0861  169.5203 N.1     1  UNL1       -0.1908
     29 C         139.8361  140.6825  168.5273 C.1     1  UNL1        0.1004
     30 C         140.5802  145.5898  160.3136 C.3     1  UNL1        0.1013
     31 C         140.7570  144.9383  158.9741 C.ar    1  UNL1        0.0131
     32 C         139.7917  143.8839  158.5198 C.ar    1  UNL1        0.0002
     33 C         139.9684  143.2324  157.1803 C.ar    1  UNL1        0.0204
     34 C         141.1105  143.6352  156.2952 C.ar    1  UNL1        0.0989
     35 N         142.0758  144.6895  156.7495 N.ar    1  UNL1       -0.2426
     36 C         141.8991  145.3411  158.0890 C.ar    1  UNL1        0.0959
@<TRIPOS>BOND
     1    28    29    3
     2    29    22    1
     3    22    23   ar
     4    23    24   ar
     5    24    25   ar
     6    25    21    1
     7    21    16    1
     8    16    17   ar
     9    17    18   ar
    10    18    19   ar
    11    19    20   ar
    12    20    15    1
    13    15     1    1
    14     1    30    1
    15    30    31    1
    16    31    32   ar
    17    32    33   ar
    18    33    34   ar
    19    34    35   ar
    20    35    36   ar
    21     2     1    1
    22     2     3    1
    23     3     4    1
    24     4     5    1
    25     5     8    1
    26     8     9    1
    27     9    10   ar
    28    10    11   ar
    29    11    12   ar
    30    12    13   ar
    31    13    14   ar
    32     5     6   am
    33     6     7    2
    34    25    26   ar
    35    26    27   ar
    36    27    22   ar
    37    20    16   ar
    38    36    31   ar
    39     6     2    1
    40    14     9   ar
@<TRIPOS>MOLECULE
*****
 36 40 0 0 0
SMALL
GASTEIGER

@<TRIPOS>ATOM
      1 N         143.4678  139.4077  161.3240 N.3     1  UNL1       -0.2575
      2 C         143.6679  140.7265  162.0100 C.3     1  UNL1        0.1372
      3 C         144.9163  141.1760  162.7096 C.3     1  UNL1        0.0468
      4 C         144.6748  142.5547  163.2489 C.3     1  UNL1        0.0957
      5 N         143.2771  142.9574  162.8827 N.am    1  UNL1       -0.2743
      6 C         142.6548  141.8275  162.1170 C.2     1  UNL1        0.2404
      7 O         141.2636  141.8030  161.5566 O.2     1  UNL1       -0.2734
      8 C         142.6174  144.2610  163.2224 C.3     1  UNL1        0.1202
      9 C         141.1721  144.2881  163.6228 C.ar    1  UNL1       -0.0023
     10 C         140.7494  143.7200  164.9451 C.ar    1  UNL1       -0.0026
     11 C         139.3041  143.7471  165.3456 C.ar    1  UNL1       -0.0003
     12 C         138.2814  144.3423  164.4237 C.ar    1  UNL1       -0.0000
     13 C         138.7041  144.9105  163.1014 C.ar    1  UNL1       -0.0003
     14 C         140.1494  144.8833  162.7009 C.ar    1  UNL1       -0.0026
     15 C         143.1107  138.1916  162.1262 C.3     1  UNL1        0.1189
     16 N         141.7894  138.3134  164.4466 N.ar    1  UNL1       -0.3070
     17 C         140.3461  138.2490  164.8500 C.ar    1  UNL1        0.1786
     18 N         139.5247  138.0759  163.6069 N.ar    1  UNL1       -0.2226
     19 C         140.4603  138.0334  162.4353 C.ar    1  UNL1        0.1147
     20 C         141.8600  138.1801  162.9543 C.ar    1  UNL1        0.0741
     21 C         142.9572  138.4815  165.3730 C.3     1  UNL1        0.1340
     22 C         142.8453  141.6302  168.5859 C.ar    1  UNL1        0.0684
     23 C         142.9877  142.0311  167.1475 C.ar    1  UNL1        0.0100
     24 C         143.0250  140.9815  166.0766 C.ar    1  UNL1       -0.0017
     25 C         142.9199  139.5310  166.4440 C.ar    1  UNL1        0.0005
     26 C         142.7775  139.1301  167.8823 C.ar    1  UNL1       -0.0017
     27 C         142.7402  140.1797  168.9533 C.ar    1  UNL1        0.0100
     28 N         142.7707  143.7294  170.7278 N.1     1  UNL1       -0.1908
     29 C         142.8080  142.6798  169.6569 C.1     1  UNL1        0.1004
     30 C         143.6248  139.3051  159.8358 C.3     1  UNL1        0.1013
     31 C         142.4761  138.8399  158.9907 C.ar    1  UNL1        0.0131
     32 C         142.6705  137.7204  158.0115 C.ar    1  UNL1        0.0002
     33 C         141.5218  137.2553  157.1665 C.ar    1  UNL1        0.0204
     34 C         140.1787  137.9096  157.3007 C.ar    1  UNL1        0.0989
     35 N         139.9843  139.0291  158.2799 N.ar    1  UNL1       -0.2426
     36 C         141.1330  139.4943  159.1249 C.ar    1  UNL1        0.0959
@<TRIPOS>BOND
     1    28    29    3
     2    29    22    1
     3    22    23   ar
     4    23    24   ar
     5    24    25   ar
     6    25    21    1
     7    21    16    1
     8    16    17   ar
     9    17    18   ar
    10    18    19   ar
    11    19    20   ar
    12    20    15    1
    13    15     1    1
    14     1    30    1
    15    30    31    1
    16    31    32   ar
    17    32    33   ar
    18    33    34   ar
    19    34    35   ar
    20    35    36   ar
    21     2     1    1
    22     2     3    1
    23     3     4    1
    24     4     5    1
    25     5     8    1
    26     8     9    1
    27     9    10   ar
    28    10    11   ar
    29    11    12   ar
    30    12    13   ar
    31    13    14   ar
    32     5     6   am
    33     6     7    2
    34    25    26   ar
    35    26    27   ar
    36    27    22   ar
    37    20    16   ar
    38    36    31   ar
    39     6     2    1
    40    14     9   ar
@<TRIPOS>MOLECULE
*****
 36 40 0 0 0
SMALL
GASTEIGER

@<TRIPOS>ATOM
      1 N         140.7911  142.4897  160.5314 N.3     1  UNL1       -0.2575
      2 C         142.1061  142.5764  161.2477 C.3     1  UNL1        0.1372
      3 C         143.3120  143.3407  160.7877 C.3     1  UNL1        0.0468
      4 C         144.3974  143.1507  161.8054 C.3     1  UNL1        0.0957
      5 N         143.8624  142.2690  162.8945 N.am    1  UNL1       -0.2743
      6 C         142.4462  141.9140  162.5499 C.2     1  UNL1        0.2404
      7 O         141.5310  141.0486  163.3644 O.2     1  UNL1       -0.2734
      8 C         144.6118  141.8208  164.1142 C.3     1  UNL1        0.1202
      9 C         143.9430  140.9324  165.1210 C.ar    1  UNL1       -0.0023
     10 C         143.1237  141.5333  166.2245 C.ar    1  UNL1       -0.0026
     11 C         142.4549  140.6449  167.2312 C.ar    1  UNL1       -0.0003
     12 C         142.6053  139.1557  167.1344 C.ar    1  UNL1       -0.0000
     13 C         143.4246  138.5547  166.0310 C.ar    1  UNL1       -0.0003
     14 C         144.0934  139.4431  165.0242 C.ar    1  UNL1       -0.0026
     15 C         140.5190  141.3468  159.5988 C.3     1  UNL1        0.1189
     16 N         141.1546  138.7850  160.0205 N.ar    1  UNL1       -0.3070
     17 C         142.3730  137.9420  159.7866 C.ar    1  UNL1        0.1786
     18 N         143.4288  138.8135  159.1735 N.ar    1  UNL1       -0.2226
     19 C         142.8628  140.1950  159.0285 C.ar    1  UNL1        0.1147
     20 C         141.4572  140.1774  159.5520 C.ar    1  UNL1        0.0741
     21 C         139.8605  138.3175  160.6181 C.3     1  UNL1        0.1340
     22 C         139.0786  138.8811  165.0136 C.ar    1  UNL1        0.0684
     23 C         140.1195  137.9026  164.5564 C.ar    1  UNL1        0.0100
     24 C         140.3801  137.7148  163.0913 C.ar    1  UNL1       -0.0017
     25 C         139.5998  138.5054  162.0833 C.ar    1  UNL1        0.0005
     26 C         138.5590  139.4839  162.5404 C.ar    1  UNL1       -0.0017
     27 C         138.2983  139.6717  164.0056 C.ar    1  UNL1        0.0100
     28 N         138.5574  139.2567  167.9441 N.1     1  UNL1       -0.1908
     29 C         138.8180  139.0690  166.4789 C.1     1  UNL1        0.1004
     30 C         139.7481  143.5458  160.7479 C.3     1  UNL1        0.1013
     31 C         139.2081  143.7956  162.1248 C.ar    1  UNL1        0.0131
     32 C         137.9829  143.0681  162.5933 C.ar    1  UNL1        0.0002
     33 C         137.4429  143.3179  163.9702 C.ar    1  UNL1        0.0204
     34 C         138.1282  144.2952  164.8787 C.ar    1  UNL1        0.0989
     35 N         139.3534  145.0227  164.4103 N.ar    1  UNL1       -0.2426
     36 C         139.8934  144.7729  163.0333 C.ar    1  UNL1        0.0959
@<TRIPOS>BOND
     1    28    29    3
     2    29    22    1
     3    22    23   ar
     4    23    24   ar
     5    24    25   ar
     6    25    21    1
     7    21    16    1
     8    16    17   ar
     9    17    18   ar
    10    18    19   ar
    11    19    20   ar
    12    20    15    1
    13    15     1    1
    14     1    30    1
    15    30    31    1
    16    31    32   ar
    17    32    33   ar
    18    33    34   ar
    19    34    35   ar
    20    35    36   ar
    21     2     1    1
    22     2     3    1
    23     3     4    1
    24     4     5    1
    25     5     8    1
    26     8     9    1
    27     9    10   ar
    28    10    11   ar
    29    11    12   ar
    30    12    13   ar
    31    13    14   ar
    32     5     6   am
    33     6     7    2
    34    25    26   ar
    35    26    27   ar
    36    27    22   ar
    37    20    16   ar
    38    36    31   ar
    39     6     2    1
    40    14     9   ar
@<TRIPOS>MOLECULE
*****
 36 40 0 0 0
SMALL
GASTEIGER

@<TRIPOS>ATOM
      1 N         142.6927  142.4184  161.1665 N.3     1  UNL1       -0.2575
      2 C         143.4109  142.4640  162.4826 C.3     1  UNL1        0.1372
      3 C         144.8984  142.4809  162.6751 C.3     1  UNL1        0.0468
      4 C         145.1746  142.5281  164.1487 C.3     1  UNL1        0.0957
      5 N         143.8578  142.5404  164.8669 N.am    1  UNL1       -0.2743
      6 C         142.7678  142.5007  163.8372 C.2     1  UNL1        0.2404
      7 O         141.2935  142.4983  164.1136 O.2     1  UNL1       -0.2734
      8 C         143.6648  142.5845  166.3539 C.3     1  UNL1        0.1202
      9 C         142.5629  141.7908  166.9909 C.ar    1  UNL1       -0.0023
     10 C         142.5389  140.2972  166.8545 C.ar    1  UNL1       -0.0026
     11 C         141.4370  139.5035  167.4915 C.ar    1  UNL1       -0.0003
     12 C         140.3590  140.2033  168.2650 C.ar    1  UNL1       -0.0000
     13 C         140.3830  141.6969  168.4014 C.ar    1  UNL1       -0.0003
     14 C         141.4849  142.4906  167.7643 C.ar    1  UNL1       -0.0026
     15 C         142.7973  141.2006  160.2969 C.3     1  UNL1        0.1189
     16 N         141.8378  139.0977  161.6392 N.ar    1  UNL1       -0.3070
     17 C         142.4009  137.7853  162.0980 C.ar    1  UNL1        0.1786
     18 N         143.8349  137.7188  161.6628 N.ar    1  UNL1       -0.2226
     19 C         144.1579  138.9900  160.9352 C.ar    1  UNL1        0.1147
     20 C         142.9236  139.8423  160.9206 C.ar    1  UNL1        0.0741
     21 C         140.4349  139.5808  161.8603 C.3     1  UNL1        0.1340
     22 C         138.2786  138.5593  165.6756 C.ar    1  UNL1        0.0684
     23 C         139.0025  137.4891  164.9136 C.ar    1  UNL1        0.0100
     24 C         139.7213  137.8296  163.6419 C.ar    1  UNL1       -0.0017
     25 C         139.7161  139.2403  163.1321 C.ar    1  UNL1        0.0005
     26 C         138.9923  140.3104  163.8940 C.ar    1  UNL1       -0.0017
     27 C         138.2735  139.9700  165.1658 C.ar    1  UNL1        0.0100
     28 N         136.8410  137.8782  168.2192 N.1     1  UNL1       -0.1908
     29 C         137.5598  138.2187  166.9474 C.1     1  UNL1        0.1004
     30 C         141.8699  143.5904  160.7201 C.3     1  UNL1        0.1013
     31 C         140.5711  143.8990  161.4040 C.ar    1  UNL1        0.0131
     32 C         139.4071  142.9639  161.2600 C.ar    1  UNL1        0.0002
     33 C         138.1082  143.2724  161.9439 C.ar    1  UNL1        0.0204
     34 C         137.9734  144.5160  162.7718 C.ar    1  UNL1        0.0989
     35 N         139.1374  145.4511  162.9157 N.ar    1  UNL1       -0.2426
     36 C         140.4362  145.1425  162.2318 C.ar    1  UNL1        0.0959
@<TRIPOS>BOND
     1    28    29    3
     2    29    22    1
     3    22    23   ar
     4    23    24   ar
     5    24    25   ar
     6    25    21    1
     7    21    16    1
     8    16    17   ar
     9    17    18   ar
    10    18    19   ar
    11    19    20   ar
    12    20    15    1
    13    15     1    1
    14     1    30    1
    15    30    31    1
    16    31    32   ar
    17    32    33   ar
    18    33    34   ar
    19    34    35   ar
    20    35    36   ar
    21     2     1    1
    22     2     3    1
    23     3     4    1
    24     4     5    1
    25     5     8    1
    26     8     9    1
    27     9    10   ar
    28    10    11   ar
    29    11    12   ar
    30    12    13   ar
    31    13    14   ar
    32     5     6   am
    33     6     7    2
    34    25    26   ar
    35    26    27   ar
    36    27    22   ar
    37    20    16   ar
    38    36    31   ar
    39     6     2    1
    40    14     9   ar
@<TRIPOS>MOLECULE
*****
 36 40 0 0 0
SMALL
GASTEIGER

@<TRIPOS>ATOM
      1 N         143.8585  140.0329  163.8433 N.3     1  UNL1       -0.2575
      2 C         143.7267  141.5030  164.1109 C.3     1  UNL1        0.1372
      3 C         144.7247  142.3612  164.8301 C.3     1  UNL1        0.0468
      4 C         144.1885  143.7615  164.8700 C.3     1  UNL1        0.0957
      5 N         142.8591  143.7688  164.1754 N.am    1  UNL1       -0.2743
      6 C         142.5736  142.3729  163.7062 C.2     1  UNL1        0.2404
      7 O         141.3500  141.9255  162.9630 O.2     1  UNL1       -0.2734
      8 C         141.9709  144.9623  163.9836 C.3     1  UNL1        0.1202
      9 C         140.4888  144.7791  163.8419 C.ar    1  UNL1       -0.0023
     10 C         139.8250  145.0304  162.5205 C.ar    1  UNL1       -0.0026
     11 C         138.3429  144.8473  162.3789 C.ar    1  UNL1       -0.0003
     12 C         137.5248  144.4128  163.5587 C.ar    1  UNL1       -0.0000
     13 C         138.1886  144.1615  164.8801 C.ar    1  UNL1       -0.0003
     14 C         139.6707  144.3447  165.0217 C.ar    1  UNL1       -0.0026
     15 C         144.2699  139.5522  162.4833 C.3     1  UNL1        0.1189
     16 N         142.2804  139.1307  160.7486 N.ar    1  UNL1       -0.3070
     17 C         141.7584  139.8474  159.5387 C.ar    1  UNL1        0.1786
     18 N         142.6022  141.0687  159.3235 N.ar    1  UNL1       -0.2226
     19 C         143.6457  141.1068  160.4003 C.ar    1  UNL1        0.1147
     20 C         143.4468  139.9090  161.2811 C.ar    1  UNL1        0.0741
     21 C         141.7323  137.8588  161.3248 C.3     1  UNL1        0.1340
     22 C         139.0068  138.0007  164.9027 C.ar    1  UNL1        0.0684
     23 C         140.1475  137.0272  164.8669 C.ar    1  UNL1        0.0100
     24 C         141.0559  136.9799  163.6743 C.ar    1  UNL1       -0.0017
     25 C         140.8237  137.9061  162.5174 C.ar    1  UNL1        0.0005
     26 C         139.6832  138.8795  162.5532 C.ar    1  UNL1       -0.0017
     27 C         138.7747  138.9268  163.7458 C.ar    1  UNL1        0.0100
     28 N         137.1898  138.0952  167.2880 N.1     1  UNL1       -0.1908
     29 C         138.0983  138.0480  166.0954 C.1     1  UNL1        0.1004
     30 C         143.5790  139.0438  164.9357 C.3     1  UNL1        0.1013
     31 C         142.7293  139.4397  166.1067 C.ar    1  UNL1        0.0131
     32 C         141.4682  140.2218  165.8877 C.ar    1  UNL1        0.0002
     33 C         140.6184  140.6177  167.0587 C.ar    1  UNL1        0.0204
     34 C         141.0297  140.2316  168.4485 C.ar    1  UNL1        0.0989
     35 N         142.2908  139.4495  168.6675 N.ar    1  UNL1       -0.2426
     36 C         143.1406  139.0536  167.4965 C.ar    1  UNL1        0.0959
@<TRIPOS>BOND
     1    28    29    3
     2    29    22    1
     3    22    23   ar
     4    23    24   ar
     5    24    25   ar
     6    25    21    1
     7    21    16    1
     8    16    17   ar
     9    17    18   ar
    10    18    19   ar
    11    19    20   ar
    12    20    15    1
    13    15     1    1
    14     1    30    1
    15    30    31    1
    16    31    32   ar
    17    32    33   ar
    18    33    34   ar
    19    34    35   ar
    20    35    36   ar
    21     2     1    1
    22     2     3    1
    23     3     4    1
    24     4     5    1
    25     5     8    1
    26     8     9    1
    27     9    10   ar
    28    10    11   ar
    29    11    12   ar
    30    12    13   ar
    31    13    14   ar
    32     5     6   am
    33     6     7    2
    34    25    26   ar
    35    26    27   ar
    36    27    22   ar
    37    20    16   ar
    38    36    31   ar
    39     6     2    1
    40    14     9   ar
@<TRIPOS>MOLECULE
*****
 36 40 0 0 0
SMALL
GASTEIGER

@<TRIPOS>ATOM
      1 N         141.5013  139.1670  159.9751 N.3     1  UNL1       -0.2575
      2 C         140.2480  139.1746  160.7993 C.3     1  UNL1        0.1372
      3 C         139.1399  138.1661  160.7283 C.3     1  UNL1        0.0468
      4 C         138.0899  138.5603  161.7243 C.3     1  UNL1        0.0957
      5 N         138.5489  139.8124  162.4108 N.am    1  UNL1       -0.2743
      6 C         139.8828  140.1921  161.8391 C.2     1  UNL1        0.2404
      7 O         140.7066  141.3806  162.2374 O.2     1  UNL1       -0.2734
      8 C         137.8049  140.5546  163.4812 C.3     1  UNL1        0.1202
      9 C         138.1580  141.9795  163.7895 C.ar    1  UNL1       -0.0023
     10 C         137.7362  143.0755  162.8562 C.ar    1  UNL1       -0.0026
     11 C         138.0893  144.5004  163.1646 C.ar    1  UNL1       -0.0003
     12 C         138.8641  144.8293  164.4061 C.ar    1  UNL1       -0.0000
     13 C         139.2858  143.7333  165.3394 C.ar    1  UNL1       -0.0003
     14 C         138.9328  142.3084  165.0311 C.ar    1  UNL1       -0.0026
     15 C         142.8212  138.8637  160.6200 C.3     1  UNL1        0.1189
     16 N         144.1667  140.0358  162.6102 N.ar    1  UNL1       -0.3070
     17 C         144.9313  141.3172  162.7632 C.ar    1  UNL1        0.1786
     18 N         144.8790  142.0473  161.4540 N.ar    1  UNL1       -0.2226
     19 C         144.0822  141.2171  160.4918 C.ar    1  UNL1        0.1147
     20 C         143.6420  139.9739  161.2064 C.ar    1  UNL1        0.0741
     21 C         143.9627  138.9983  163.6742 C.3     1  UNL1        0.1340
     22 C         139.9454  138.5666  165.6551 C.ar    1  UNL1        0.0684
     23 C         140.8738  139.6677  166.0742 C.ar    1  UNL1        0.0100
     24 C         142.2129  139.8116  165.4138 C.ar    1  UNL1       -0.0017
     25 C         142.6236  138.8544  164.3345 C.ar    1  UNL1        0.0005
     26 C         141.6952  137.7533  163.9154 C.ar    1  UNL1       -0.0017
     27 C         140.3561  137.6094  164.5757 C.ar    1  UNL1        0.0100
     28 N         137.2670  138.2790  166.9757 N.1     1  UNL1       -0.1908
     29 C         138.6062  138.4228  166.3154 C.1     1  UNL1        0.1004
     30 C         141.4346  139.4626  158.5060 C.3     1  UNL1        0.1013
     31 C         142.2890  138.6893  157.5458 C.ar    1  UNL1        0.0131
     32 C         141.9759  137.2519  157.2534 C.ar    1  UNL1        0.0002
     33 C         142.8303  136.4785  156.2932 C.ar    1  UNL1        0.0204
     34 C         143.9978  137.1427  155.6255 C.ar    1  UNL1        0.0989
     35 N         144.3109  138.5802  155.9179 N.ar    1  UNL1       -0.2426
     36 C         143.4565  139.3535  156.8781 C.ar    1  UNL1        0.0959
@<TRIPOS>BOND
     1    28    29    3
     2    29    22    1
     3    22    23   ar
     4    23    24   ar
     5    24    25   ar
     6    25    21    1
     7    21    16    1
     8    16    17   ar
     9    17    18   ar
    10    18    19   ar
    11    19    20   ar
    12    20    15    1
    13    15     1    1
    14     1    30    1
    15    30    31    1
    16    31    32   ar
    17    32    33   ar
    18    33    34   ar
    19    34    35   ar
    20    35    36   ar
    21     2     1    1
    22     2     3    1
    23     3     4    1
    24     4     5    1
    25     5     8    1
    26     8     9    1
    27     9    10   ar
    28    10    11   ar
    29    11    12   ar
    30    12    13   ar
    31    13    14   ar
    32     5     6   am
    33     6     7    2
    34    25    26   ar
    35    26    27   ar
    36    27    22   ar
    37    20    16   ar
    38    36    31   ar
    39     6     2    1
    40    14     9   ar
@<TRIPOS>MOLECULE
*****
 36 40 0 0 0
SMALL
GASTEIGER

@<TRIPOS>ATOM
      1 N         143.5230  141.5244  159.2440 N.3     1  UNL1       -0.2575
      2 C         143.7214  140.5721  160.3859 C.3     1  UNL1        0.1372
      3 C         143.3609  139.1162  160.3926 C.3     1  UNL1        0.0468
      4 C         143.7319  138.5529  161.7324 C.3     1  UNL1        0.0957
      5 N         144.3217  139.6607  162.5538 N.am    1  UNL1       -0.2743
      6 C         144.3152  140.9088  161.7216 C.2     1  UNL1        0.2404
      7 O         144.8149  142.2566  162.1499 O.2     1  UNL1       -0.2734
      8 C         144.8289  139.5416  163.9604 C.3     1  UNL1        0.1202
      9 C         143.9547  139.9477  165.1098 C.ar    1  UNL1       -0.0023
     10 C         143.7052  141.4009  165.3853 C.ar    1  UNL1       -0.0026
     11 C         142.8310  141.8070  166.5347 C.ar    1  UNL1       -0.0003
     12 C         142.2064  140.7599  167.4084 C.ar    1  UNL1       -0.0000
     13 C         142.4559  139.3067  167.1328 C.ar    1  UNL1       -0.0003
     14 C         143.3301  138.9006  165.9835 C.ar    1  UNL1       -0.0026
     15 C         142.9781  142.8984  159.4994 C.3     1  UNL1        0.1189
     16 N         140.7737  143.0132  161.0069 N.ar    1  UNL1       -0.3070
     17 C         139.3208  143.2764  160.7430 C.ar    1  UNL1        0.1786
     18 N         139.1537  143.5214  159.2727 N.ar    1  UNL1       -0.2226
     19 C         140.5034  143.4096  158.6278 C.ar    1  UNL1        0.1147
     20 C         141.5046  143.0955  159.6996 C.ar    1  UNL1        0.0741
     21 C         141.3881  142.7192  162.3435 C.3     1  UNL1        0.1340
     22 C         139.1998  140.1336  165.3057 C.ar    1  UNL1        0.0684
     23 C         140.0374  139.5018  164.2337 C.ar    1  UNL1        0.0100
     24 C         140.7668  140.3637  163.2463 C.ar    1  UNL1       -0.0017
     25 C         140.6586  141.8573  163.3309 C.ar    1  UNL1        0.0005
     26 C         139.8211  142.4891  164.4029 C.ar    1  UNL1       -0.0017
     27 C         139.0916  141.6273  165.3903 C.ar    1  UNL1        0.0100
     28 N         137.7409  138.4096  167.2806 N.1     1  UNL1       -0.1908
     29 C         138.4703  139.2716  166.2932 C.1     1  UNL1        0.1004
     30 C         143.8695  141.1025  157.8469 C.3     1  UNL1        0.1013
     31 C         145.1866  141.4991  157.2485 C.ar    1  UNL1        0.0131
     32 C         146.0224  142.5554  157.9085 C.ar    1  UNL1        0.0002
     33 C         147.3395  142.9520  157.3102 C.ar    1  UNL1        0.0204
     34 C         147.8207  142.2923  156.0519 C.ar    1  UNL1        0.0989
     35 N         146.9848  141.2361  155.3919 N.ar    1  UNL1       -0.2426
     36 C         145.6677  140.8395  155.9902 C.ar    1  UNL1        0.0959
@<TRIPOS>BOND
     1    28    29    3
     2    29    22    1
     3    22    23   ar
     4    23    24   ar
     5    24    25   ar
     6    25    21    1
     7    21    16    1
     8    16    17   ar
     9    17    18   ar
    10    18    19   ar
    11    19    20   ar
    12    20    15    1
    13    15     1    1
    14     1    30    1
    15    30    31    1
    16    31    32   ar
    17    32    33   ar
    18    33    34   ar
    19    34    35   ar
    20    35    36   ar
    21     2     1    1
    22     2     3    1
    23     3     4    1
    24     4     5    1
    25     5     8    1
    26     8     9    1
    27     9    10   ar
    28    10    11   ar
    29    11    12   ar
    30    12    13   ar
    31    13    14   ar
    32     5     6   am
    33     6     7    2
    34    25    26   ar
    35    26    27   ar
    36    27    22   ar
    37    20    16   ar
    38    36    31   ar
    39     6     2    1
    40    14     9   ar
