@<TRIPOS>MOLECULE
*****
 26 29 0 0 0
SMALL
GASTEIGER

@<TRIPOS>ATOM
      1 C         141.4651  137.5850  164.2660 C.3     1  UNL1        0.1123
      2 N         140.7992  138.4707  165.2770 N.am    1  UNL1       -0.2606
      3 C         139.3739  138.9366  165.2381 C.3     1  UNL1        0.1169
      4 C         139.1355  139.7999  166.4415 C.3     1  UNL1        0.1212
      5 N         140.4134  139.8676  167.2239 N.am    1  UNL1       -0.2413
      6 C         141.4417  139.0461  166.5042 C.2     1  UNL1        0.3111
      7 O         142.8628  138.8368  166.9360 O.2     1  UNL1       -0.2520
      8 C         140.6258  140.6239  168.5017 C.ar    1  UNL1        0.0562
      9 C         141.0863  139.9016  169.7331 C.ar    1  UNL1        0.0150
     10 C         141.2987  140.6579  171.0109 C.ar    1  UNL1        0.0021
     11 C         141.0506  142.1365  171.0574 C.ar    1  UNL1        0.0115
     12 C         140.5901  142.8588  169.8260 C.ar    1  UNL1        0.0589
     13 CL        140.3421  144.3374  169.8725 Cl      1  UNL1       -0.0822
     14 C         140.3777  142.1025  168.5482 C.ar    1  UNL1        0.0263
     15 C         142.1278  138.1869  163.0623 C.3     1  UNL1        0.0939
     16 C         143.8451  140.4646  163.3748 C.3     1  UNL1        0.0323
     17 C         145.2720  140.4812  163.8369 C.3     1  UNL1        0.0185
     18 C         145.7430  141.9054  163.8363 C.3     1  UNL1        0.0015
     19 C         144.6071  142.7690  163.3738 C.3     1  UNL1        0.0015
     20 C         143.4341  141.8785  163.0886 C.3     1  UNL1        0.0185
     21 C         142.4403  140.7602  162.8862 C.3     1  UNL1        0.0722
     22 N         142.9920  139.4038  163.2120 N.3     1  UNL1       -0.2712
     23 C         144.4078  139.2643  163.6873 C.3     1  UNL1        0.0722
     24 C         142.9809  139.2477  163.2252 C.3     1  UNL1        0.1423
     25 C         142.5577  137.9704  160.8137 C.3     1  UNL1        0.1741
     26 O         142.3117  138.9597  161.9140 O.3     1  UNL1       -0.3511
@<TRIPOS>BOND
     1    25    26    1
     2    26    24    1
     3    24    16    1
     4    16    17    1
     5    17    18    1
     6    18    19    1
     7    20    19    1
     8    20    21    1
     9    21    22    1
    10    22    15    1
    11    15     1    1
    12     1     2    1
    13     2     3    1
    14     3     4    1
    15     4     5    1
    16     5     8    1
    17     8     9   ar
    18     9    10   ar
    19    10    11   ar
    20    11    12   ar
    21    12    13    1
    22    12    14   ar
    23     5     6   am
    24     6     7    2
    25    22    23    1
    26    20    16    1
    27     6     2   am
    28    23    17    1
    29    14     8   ar
@<TRIPOS>MOLECULE
*****
 26 29 0 0 0
SMALL
GASTEIGER

@<TRIPOS>ATOM
      1 C         144.3436  139.4866  163.8823 C.3     1  UNL1        0.1123
      2 N         144.0787  140.9378  163.6101 N.am    1  UNL1       -0.2606
      3 C         145.0078  142.0757  163.9137 C.3     1  UNL1        0.1169
      4 C         144.3414  143.3470  163.4778 C.3     1  UNL1        0.1212
      5 N         143.0006  142.9947  162.9050 N.am    1  UNL1       -0.2413
      6 C         142.8383  141.5058  162.9867 C.2     1  UNL1        0.3111
      7 O         141.6449  140.7224  162.5260 O.2     1  UNL1       -0.2520
      8 C         141.9982  143.9617  162.3481 C.ar    1  UNL1        0.0562
      9 C         141.0469  144.6684  163.2677 C.ar    1  UNL1        0.0150
     10 C         140.0445  145.6354  162.7109 C.ar    1  UNL1        0.0021
     11 C         139.9934  145.8957  161.2345 C.ar    1  UNL1        0.0115
     12 C         140.9447  145.1890  160.3150 C.ar    1  UNL1        0.0589
     13 CL        140.8936  145.4493  158.8386 Cl      1  UNL1       -0.0822
     14 C         141.9471  144.2220  160.8718 C.ar    1  UNL1        0.0263
     15 C         143.7810  138.8395  165.1130 C.3     1  UNL1        0.0939
     16 C         140.9393  138.5632  165.4010 C.3     1  UNL1        0.0323
     17 C         140.0490  137.5338  164.7704 C.3     1  UNL1        0.0185
     18 C         138.6428  137.7990  165.2202 C.3     1  UNL1        0.0015
     19 C         138.6640  138.9922  166.1288 C.3     1  UNL1        0.0015
     20 C         140.0833  139.4645  166.2406 C.3     1  UNL1        0.0185
     21 C         141.5712  139.7096  166.1665 C.3     1  UNL1        0.0722
     22 N         142.2955  138.7305  165.2907 N.3     1  UNL1       -0.2712
     23 C         141.5344  137.6427  164.5927 C.3     1  UNL1        0.0722
     24 C         142.4247  138.6721  165.2233 C.3     1  UNL1        0.1423
     25 C         144.2520  137.5627  166.9716 C.3     1  UNL1        0.1741
     26 O         143.3297  138.6080  166.4178 O.3     1  UNL1       -0.3511
@<TRIPOS>BOND
     1    25    26    1
     2    26    24    1
     3    24    16    1
     4    16    17    1
     5    17    18    1
     6    18    19    1
     7    20    19    1
     8    20    21    1
     9    21    22    1
    10    22    15    1
    11    15     1    1
    12     1     2    1
    13     2     3    1
    14     3     4    1
    15     4     5    1
    16     5     8    1
    17     8     9   ar
    18     9    10   ar
    19    10    11   ar
    20    11    12   ar
    21    12    13    1
    22    12    14   ar
    23     5     6   am
    24     6     7    2
    25    22    23    1
    26    20    16    1
    27     6     2   am
    28    23    17    1
    29    14     8   ar
@<TRIPOS>MOLECULE
*****
 26 29 0 0 0
SMALL
GASTEIGER

@<TRIPOS>ATOM
      1 C         139.3975  138.4167  163.8710 C.3     1  UNL1        0.1123
      2 N         139.2270  138.8431  165.2989 N.am    1  UNL1       -0.2606
      3 C         138.0422  138.5503  166.1711 C.3     1  UNL1        0.1169
      4 C         138.2944  139.1634  167.5167 C.3     1  UNL1        0.1212
      5 N         139.6349  139.8352  167.4761 N.am    1  UNL1       -0.2413
      6 C         140.2113  139.6373  166.1055 C.2     1  UNL1        0.3111
      7 O         141.5389  140.1445  165.6257 O.2     1  UNL1       -0.2520
      8 C         140.2848  140.5750  168.6075 C.ar    1  UNL1        0.0562
      9 C         141.1257  139.8332  169.6038 C.ar    1  UNL1        0.0150
     10 C         141.7757  140.5729  170.7353 C.ar    1  UNL1        0.0021
     11 C         141.5848  142.0546  170.8705 C.ar    1  UNL1        0.0115
     12 C         140.7439  142.7964  169.8742 C.ar    1  UNL1        0.0589
     13 CL        140.5530  144.2781  170.0094 Cl      1  UNL1       -0.0822
     14 C         140.0940  142.0567  168.7427 C.ar    1  UNL1        0.0263
     15 C         138.8632  139.2752  162.7630 C.3     1  UNL1        0.0939
     16 C         138.7988  142.1279  163.0675 C.3     1  UNL1        0.0323
     17 C         139.8949  143.1074  162.7688 C.3     1  UNL1        0.0185
     18 C         139.3872  144.4824  163.0874 C.3     1  UNL1        0.0015
     19 C         137.9774  144.3528  163.5830 C.3     1  UNL1        0.0015
     20 C         137.6138  142.8976  163.5707 C.3     1  UNL1        0.0185
     21 C         137.5286  141.3948  163.4532 C.3     1  UNL1        0.0722
     22 N         138.7875  140.7632  162.9370 N.3     1  UNL1       -0.2712
     23 C         139.9705  141.6194  162.5948 C.3     1  UNL1        0.0722
     24 C         138.8745  140.6399  162.8935 C.3     1  UNL1        0.1423
     25 C         137.5714  139.3413  160.8340 C.3     1  UNL1        0.1741
     26 O         137.7581  139.9069  162.2106 O.3     1  UNL1       -0.3511
@<TRIPOS>BOND
     1    25    26    1
     2    26    24    1
     3    24    16    1
     4    16    17    1
     5    17    18    1
     6    18    19    1
     7    20    19    1
     8    20    21    1
     9    21    22    1
    10    22    15    1
    11    15     1    1
    12     1     2    1
    13     2     3    1
    14     3     4    1
    15     4     5    1
    16     5     8    1
    17     8     9   ar
    18     9    10   ar
    19    10    11   ar
    20    11    12   ar
    21    12    13    1
    22    12    14   ar
    23     5     6   am
    24     6     7    2
    25    22    23    1
    26    20    16    1
    27     6     2   am
    28    23    17    1
    29    14     8   ar
@<TRIPOS>MOLECULE
*****
 26 29 0 0 0
SMALL
GASTEIGER

@<TRIPOS>ATOM
      1 C         143.8172  139.7591  163.7476 C.3     1  UNL1        0.1123
      2 N         143.3170  139.6555  165.1580 N.am    1  UNL1       -0.2606
      3 C         143.7153  138.6131  166.1604 C.3     1  UNL1        0.1169
      4 C         142.9752  138.8896  167.4355 C.3     1  UNL1        0.1212
      5 N         142.1195  140.1027  167.2211 N.am    1  UNL1       -0.2413
      6 C         142.3307  140.5761  165.8135 C.2     1  UNL1        0.3111
      7 O         141.6715  141.7619  165.1739 O.2     1  UNL1       -0.2520
      8 C         141.2119  140.7320  168.2361 C.ar    1  UNL1        0.0562
      9 C         140.1402  139.9137  168.8934 C.ar    1  UNL1        0.0150
     10 C         139.2326  140.5429  169.9085 C.ar    1  UNL1        0.0021
     11 C         139.3966  141.9904  170.2662 C.ar    1  UNL1        0.0115
     12 C         140.4683  142.8086  169.6088 C.ar    1  UNL1        0.0589
     13 CL        140.6323  144.2561  169.9665 Cl      1  UNL1       -0.0822
     14 C         141.3759  142.1794  168.5938 C.ar    1  UNL1        0.0263
     15 C         143.2309  138.8861  162.6779 C.3     1  UNL1        0.0939
     16 C         140.3854  138.8175  162.3135 C.3     1  UNL1        0.0323
     17 C         139.5076  139.8906  161.7408 C.3     1  UNL1        0.0185
     18 C         138.0937  139.3901  161.7559 C.3     1  UNL1        0.0015
     19 C         138.0975  138.0076  162.3379 C.3     1  UNL1        0.0015
     20 C         139.5139  137.6538  162.6825 C.3     1  UNL1        0.0185
     21 C         141.0023  137.5732  162.9222 C.3     1  UNL1        0.0722
     22 N         141.7429  138.8090  162.5047 N.3     1  UNL1       -0.2712
     23 C         140.9956  139.9677  161.9140 C.3     1  UNL1        0.0722
     24 C         141.8734  138.8946  162.4867 C.3     1  UNL1        0.1423
     25 C         143.5762  137.6360  160.7141 C.3     1  UNL1        0.1741
     26 O         142.7482  137.7987  161.9542 O.3     1  UNL1       -0.3511
@<TRIPOS>BOND
     1    25    26    1
     2    26    24    1
     3    24    16    1
     4    16    17    1
     5    17    18    1
     6    18    19    1
     7    20    19    1
     8    20    21    1
     9    21    22    1
    10    22    15    1
    11    15     1    1
    12     1     2    1
    13     2     3    1
    14     3     4    1
    15     4     5    1
    16     5     8    1
    17     8     9   ar
    18     9    10   ar
    19    10    11   ar
    20    11    12   ar
    21    12    13    1
    22    12    14   ar
    23     5     6   am
    24     6     7    2
    25    22    23    1
    26    20    16    1
    27     6     2   am
    28    23    17    1
    29    14     8   ar
@<TRIPOS>MOLECULE
*****
 26 29 0 0 0
SMALL
GASTEIGER

@<TRIPOS>ATOM
      1 C         143.2310  141.7248  162.7448 C.3     1  UNL1        0.1123
      2 N         142.6969  140.8129  163.8093 N.am    1  UNL1       -0.2606
      3 C         142.1943  139.4148  163.6020 C.3     1  UNL1        0.1169
      4 C         141.7583  138.8770  164.9327 C.3     1  UNL1        0.1212
      5 N         141.9914  139.9425  165.9623 N.am    1  UNL1       -0.2413
      6 C         142.5715  141.1390  165.2681 C.2     1  UNL1        0.3111
      7 O         142.9582  142.4342  165.9184 O.2     1  UNL1       -0.2520
      8 C         141.6963  139.8311  167.4287 C.ar    1  UNL1        0.0562
      9 C         142.7557  139.3433  168.3720 C.ar    1  UNL1        0.0150
     10 C         142.4606  139.2319  169.8385 C.ar    1  UNL1        0.0021
     11 C         141.1062  139.6082  170.3616 C.ar    1  UNL1        0.0115
     12 C         140.0468  140.0960  169.4184 C.ar    1  UNL1        0.0589
     13 CL        138.6923  140.4724  169.9415 Cl      1  UNL1       -0.0822
     14 C         140.3418  140.2075  167.9519 C.ar    1  UNL1        0.0263
     15 C         142.3509  142.7878  162.1569 C.3     1  UNL1        0.0939
     16 C         139.9889  143.6286  163.5527 C.3     1  UNL1        0.0323
     17 C         139.8657  144.7229  164.5712 C.3     1  UNL1        0.0185
     18 C         138.4339  144.7849  165.0142 C.3     1  UNL1        0.0015
     19 C         137.6722  143.7288  164.2695 C.3     1  UNL1        0.0015
     20 C         138.6333  143.0142  163.3663 C.3     1  UNL1        0.0185
     21 C         139.8043  142.4855  162.5736 C.3     1  UNL1        0.0722
     22 N         141.0930  143.1960  162.8647 N.3     1  UNL1       -0.2712
     23 C         141.1236  144.3147  163.8634 C.3     1  UNL1        0.0722
     24 C         141.2468  143.2204  162.8450 C.3     1  UNL1        0.1423
     25 C         141.8718  144.0582  160.2889 C.3     1  UNL1        0.1741
     26 O         141.2823  143.1724  161.3462 O.3     1  UNL1       -0.3511
@<TRIPOS>BOND
     1    25    26    1
     2    26    24    1
     3    24    16    1
     4    16    17    1
     5    17    18    1
     6    18    19    1
     7    20    19    1
     8    20    21    1
     9    21    22    1
    10    22    15    1
    11    15     1    1
    12     1     2    1
    13     2     3    1
    14     3     4    1
    15     4     5    1
    16     5     8    1
    17     8     9   ar
    18     9    10   ar
    19    10    11   ar
    20    11    12   ar
    21    12    13    1
    22    12    14   ar
    23     5     6   am
    24     6     7    2
    25    22    23    1
    26    20    16    1
    27     6     2   am
    28    23    17    1
    29    14     8   ar
@<TRIPOS>MOLECULE
*****
 26 29 0 0 0
SMALL
GASTEIGER

@<TRIPOS>ATOM
      1 C         142.4361  142.1090  167.5291 C.3     1  UNL1        0.1123
      2 N         142.7175  142.7142  166.1857 N.am    1  UNL1       -0.2606
      3 C         144.0747  142.9542  165.5936 C.3     1  UNL1        0.1169
      4 C         143.8871  143.5740  164.2406 C.3     1  UNL1        0.1212
      5 N         142.4140  143.7170  163.9964 N.am    1  UNL1       -0.2413
      6 C         141.6912  143.1856  165.1986 C.2     1  UNL1        0.3111
      7 O         140.2033  143.1347  165.3815 O.2     1  UNL1       -0.2520
      8 C         141.7759  144.2906  162.7662 C.ar    1  UNL1        0.0562
      9 C         140.6968  145.3247  162.8937 C.ar    1  UNL1        0.0150
     10 C         140.0586  145.8984  161.6635 C.ar    1  UNL1        0.0021
     11 C         140.4995  145.4381  160.3057 C.ar    1  UNL1        0.0115
     12 C         141.5786  144.4040  160.1781 C.ar    1  UNL1        0.0589
     13 CL        142.0195  143.9436  158.8203 Cl      1  UNL1       -0.0822
     14 C         142.2168  143.8302  161.4084 C.ar    1  UNL1        0.0263
     15 C         142.5299  140.6238  167.7171 C.3     1  UNL1        0.0939
     16 C         141.2915  138.8876  165.7970 C.3     1  UNL1        0.0323
     17 C         139.8333  138.7822  165.4617 C.3     1  UNL1        0.0185
     18 C         139.6766  137.7361  164.3981 C.3     1  UNL1        0.0015
     19 C         141.0381  137.1951  164.0760 C.3     1  UNL1        0.0015
     20 C         142.0361  137.9067  164.9406 C.3     1  UNL1        0.0185
     21 C         142.7984  138.7691  165.9176 C.3     1  UNL1        0.0722
     22 N         141.9228  139.6997  166.7034 N.3     1  UNL1       -0.2712
     23 C         140.4403  139.7062  166.4754 C.3     1  UNL1        0.0722
     24 C         141.8985  139.8117  166.8107 C.3     1  UNL1        0.1423
     25 C         142.5135  139.1163  169.4116 C.3     1  UNL1        0.1741
     26 O         142.7240  139.2557  167.9330 O.3     1  UNL1       -0.3511
@<TRIPOS>BOND
     1    25    26    1
     2    26    24    1
     3    24    16    1
     4    16    17    1
     5    17    18    1
     6    18    19    1
     7    20    19    1
     8    20    21    1
     9    21    22    1
    10    22    15    1
    11    15     1    1
    12     1     2    1
    13     2     3    1
    14     3     4    1
    15     4     5    1
    16     5     8    1
    17     8     9   ar
    18     9    10   ar
    19    10    11   ar
    20    11    12   ar
    21    12    13    1
    22    12    14   ar
    23     5     6   am
    24     6     7    2
    25    22    23    1
    26    20    16    1
    27     6     2   am
    28    23    17    1
    29    14     8   ar
@<TRIPOS>MOLECULE
*****
 26 29 0 0 0
SMALL
GASTEIGER

@<TRIPOS>ATOM
      1 C         145.4490  141.6345  163.4807 C.3     1  UNL1        0.1123
      2 N         144.5654  140.7931  164.3532 N.am    1  UNL1       -0.2606
      3 C         144.3990  139.3049  164.2652 C.3     1  UNL1        0.1169
      4 C         143.4238  138.8841  165.3245 C.3     1  UNL1        0.1212
      5 N         142.9877  140.1122  166.0673 N.am    1  UNL1       -0.2413
      6 C         143.6933  141.2920  165.4669 C.2     1  UNL1        0.3111
      7 O         143.5515  142.7200  165.9037 O.2     1  UNL1       -0.2520
      8 C         142.0166  140.1532  167.2096 C.ar    1  UNL1        0.0562
      9 C         140.5553  139.9238  166.9604 C.ar    1  UNL1        0.0150
     10 C         139.5841  139.9649  168.1028 C.ar    1  UNL1        0.0021
     11 C         140.0742  140.2353  169.4944 C.ar    1  UNL1        0.0115
     12 C         141.5354  140.4647  169.7437 C.ar    1  UNL1        0.0589
     13 CL        142.0255  140.7351  171.1353 Cl      1  UNL1       -0.0822
     14 C         142.5066  140.4237  168.6013 C.ar    1  UNL1        0.0263
     15 C         144.8697  142.3544  162.2990 C.3     1  UNL1        0.0939
     16 C         142.3780  143.7544  162.5550 C.3     1  UNL1        0.0323
     17 C         142.1633  145.1726  162.9939 C.3     1  UNL1        0.0185
     18 C         140.6890  145.4479  162.9677 C.3     1  UNL1        0.0015
     19 C         139.9925  144.1999  162.5125 C.3     1  UNL1        0.0015
     20 C         141.0363  143.1533  162.2574 C.3     1  UNL1        0.0185
     21 C         142.2807  142.3159  162.0852 C.3     1  UNL1        0.0722
     22 N         143.5459  143.0494  162.4193 N.3     1  UNL1       -0.2712
     23 C         143.4871  144.4777  162.8737 C.3     1  UNL1        0.0722
     24 C         143.7018  143.0595  162.4347 C.3     1  UNL1        0.1423
     25 C         144.8454  142.5136  159.9811 C.3     1  UNL1        0.1741
     26 O         144.0196  142.2585  161.2070 O.3     1  UNL1       -0.3511
@<TRIPOS>BOND
     1    25    26    1
     2    26    24    1
     3    24    16    1
     4    16    17    1
     5    17    18    1
     6    18    19    1
     7    20    19    1
     8    20    21    1
     9    21    22    1
    10    22    15    1
    11    15     1    1
    12     1     2    1
    13     2     3    1
    14     3     4    1
    15     4     5    1
    16     5     8    1
    17     8     9   ar
    18     9    10   ar
    19    10    11   ar
    20    11    12   ar
    21    12    13    1
    22    12    14   ar
    23     5     6   am
    24     6     7    2
    25    22    23    1
    26    20    16    1
    27     6     2   am
    28    23    17    1
    29    14     8   ar
@<TRIPOS>MOLECULE
*****
 26 29 0 0 0
SMALL
GASTEIGER

@<TRIPOS>ATOM
      1 C         141.5663  138.0013  157.6912 C.3     1  UNL1        0.1123
      2 N         141.7211  138.0755  159.1813 N.am    1  UNL1       -0.2606
      3 C         142.9872  137.8359  159.9493 C.3     1  UNL1        0.1169
      4 C         142.6855  138.0148  161.4077 C.3     1  UNL1        0.1212
      5 N         141.2330  138.3649  161.5411 N.am    1  UNL1       -0.2413
      6 C         140.6370  138.4025  160.1651 C.2     1  UNL1        0.3111
      7 O         139.2078  138.7126  159.8316 O.2     1  UNL1       -0.2520
      8 C         140.5046  138.6308  162.8251 C.ar    1  UNL1        0.0562
      9 C         139.7177  137.5355  163.4816 C.ar    1  UNL1        0.0150
     10 C         138.9892  137.8013  164.7656 C.ar    1  UNL1        0.0021
     11 C         139.0476  139.1625  165.3930 C.ar    1  UNL1        0.0115
     12 C         139.8345  140.2579  164.7365 C.ar    1  UNL1        0.0589
     13 CL        139.8928  141.6191  165.3639 Cl      1  UNL1       -0.0822
     14 C         140.5630  139.9920  163.4525 C.ar    1  UNL1        0.0263
     15 C         142.6083  137.3101  156.8624 C.3     1  UNL1        0.0939
     16 C         142.3396  134.5105  156.2928 C.3     1  UNL1        0.0323
     17 C         141.4243  133.8603  155.2981 C.3     1  UNL1        0.0185
     18 C         141.6457  132.3782  155.3641 C.3     1  UNL1        0.0015
     19 C         142.6978  132.1123  156.3997 C.3     1  UNL1        0.0015
     20 C         143.1267  133.4302  156.9736 C.3     1  UNL1        0.0185
     21 C         143.3558  134.8718  157.3588 C.3     1  UNL1        0.0722
     22 N         142.4991  135.8381  156.5954 N.3     1  UNL1       -0.2712
     23 C         141.5335  135.3323  155.5651 C.3     1  UNL1        0.0722
     24 C         142.4488  135.9825  156.5598 C.3     1  UNL1        0.1423
     25 C         144.3595  137.5851  155.3738 C.3     1  UNL1        0.1741
     26 O         143.7706  136.6757  156.4112 O.3     1  UNL1       -0.3511
@<TRIPOS>BOND
     1    25    26    1
     2    26    24    1
     3    24    16    1
     4    16    17    1
     5    17    18    1
     6    18    19    1
     7    20    19    1
     8    20    21    1
     9    21    22    1
    10    22    15    1
    11    15     1    1
    12     1     2    1
    13     2     3    1
    14     3     4    1
    15     4     5    1
    16     5     8    1
    17     8     9   ar
    18     9    10   ar
    19    10    11   ar
    20    11    12   ar
    21    12    13    1
    22    12    14   ar
    23     5     6   am
    24     6     7    2
    25    22    23    1
    26    20    16    1
    27     6     2   am
    28    23    17    1
    29    14     8   ar
@<TRIPOS>MOLECULE
*****
 26 29 0 0 0
SMALL
GASTEIGER

@<TRIPOS>ATOM
      1 C         138.5768  139.3071  165.6822 C.3     1  UNL1        0.1123
      2 N         138.6542  139.2883  164.1843 N.am    1  UNL1       -0.2606
      3 C         138.8203  138.0698  163.3252 C.3     1  UNL1        0.1169
      4 C         138.8479  138.5132  161.8925 C.3     1  UNL1        0.1212
      5 N         138.6989  140.0055  161.8660 N.am    1  UNL1       -0.2413
      6 C         138.5792  140.4845  163.2825 C.2     1  UNL1        0.3111
      7 O         138.4135  141.9097  163.7202 O.2     1  UNL1       -0.2520
      8 C         138.6739  140.8674  160.6387 C.ar    1  UNL1        0.0562
      9 C         139.3605  142.2011  160.6448 C.ar    1  UNL1        0.0150
     10 C         139.3356  143.0631  159.4175 C.ar    1  UNL1        0.0021
     11 C         138.6241  142.5914  158.1841 C.ar    1  UNL1        0.0115
     12 C         137.9375  141.2577  158.1780 C.ar    1  UNL1        0.0589
     13 CL        137.2260  140.7861  156.9446 Cl      1  UNL1       -0.0822
     14 C         137.9624  140.3958  159.4053 C.ar    1  UNL1        0.0263
     15 C         139.8286  139.4505  166.4962 C.3     1  UNL1        0.0939
     16 C         140.0090  141.4843  168.5125 C.3     1  UNL1        0.0323
     17 C         139.6878  141.3599  169.9724 C.3     1  UNL1        0.0185
     18 C         139.9380  142.6910  170.6172 C.3     1  UNL1        0.0015
     19 C         140.4139  143.6380  169.5558 C.3     1  UNL1        0.0015
     20 C         140.4577  142.8923  168.2550 C.3     1  UNL1        0.0185
     21 C         140.4035  141.9085  167.1111 C.3     1  UNL1        0.0722
     22 N         139.9371  140.5424  167.5190 N.3     1  UNL1       -0.2712
     23 C         139.5793  140.2681  168.9496 C.3     1  UNL1        0.0722
     24 C         139.9005  140.3925  167.4897 C.3     1  UNL1        0.1423
     25 C         142.1645  139.1270  166.5416 C.3     1  UNL1        0.1741
     26 O         141.0431  140.1232  166.5560 O.3     1  UNL1       -0.3511
@<TRIPOS>BOND
     1    25    26    1
     2    26    24    1
     3    24    16    1
     4    16    17    1
     5    17    18    1
     6    18    19    1
     7    20    19    1
     8    20    21    1
     9    21    22    1
    10    22    15    1
    11    15     1    1
    12     1     2    1
    13     2     3    1
    14     3     4    1
    15     4     5    1
    16     5     8    1
    17     8     9   ar
    18     9    10   ar
    19    10    11   ar
    20    11    12   ar
    21    12    13    1
    22    12    14   ar
    23     5     6   am
    24     6     7    2
    25    22    23    1
    26    20    16    1
    27     6     2   am
    28    23    17    1
    29    14     8   ar
