@<TRIPOS>MOLECULE
*****
 29 31 0 0 0
SMALL
GASTEIGER

@<TRIPOS>ATOM
      1 C         139.7948  143.1834  160.4831 C.2     1  UNL1        0.2435
      2 O         138.4936  143.2558  159.7402 O.2     1  UNL1       -0.2731
      3 N         141.0779  142.9880  159.7311 N.am    1  UNL1       -0.2782
      4 C         142.3790  142.9156  160.4739 C.3     1  UNL1        0.0938
      5 C         143.6621  142.7202  159.7220 C.3     1  UNL1        0.0259
      6 C         143.6441  142.5971  158.2271 C.3     1  UNL1        0.0257
      7 C         142.3429  142.6695  157.4843 C.3     1  UNL1        0.0259
      8 C         141.0598  142.8649  158.2362 C.3     1  UNL1        0.0938
      9 C         144.9272  142.4017  157.4751 C.ar    1  UNL1       -0.0223
     10 C         146.2035  142.9842  158.0057 C.ar    1  UNL1       -0.0034
     11 C         147.4867  142.7887  157.2537 C.ar    1  UNL1        0.0111
     12 C         147.4934  142.0108  155.9712 C.ar    1  UNL1        0.0577
     13 CL        148.7764  141.8154  155.2192 Cl      1  UNL1       -0.0822
     14 C         146.2169  141.4283  155.4407 C.ar    1  UNL1        0.0111
     15 C         144.9338  141.6238  156.1926 C.ar    1  UNL1       -0.0034
     16 C         139.8129  143.3065  161.9779 C.3     1  UNL1        0.1489
     17 N         139.8232  142.0733  162.8319 N.am    1  UNL1       -0.2948
     18 C         138.5426  141.3440  163.1116 C.2     1  UNL1        0.2461
     19 O         137.2518  141.8477  162.5373 O.2     1  UNL1       -0.2701
     20 H         140.6704  141.7427  163.2088 H       1  UNL1        0.1501
     21 C         138.5530  140.1108  163.9656 C.ar    1  UNL1        0.0534
     22 C         138.1942  140.2021  165.4191 C.ar    1  UNL1        0.0045
     23 C         138.2045  138.9690  166.2731 C.ar    1  UNL1        0.0001
     24 C         138.5736  137.6445  165.6734 C.ar    1  UNL1        0.0000
     25 C         138.9324  137.5532  164.2199 C.ar    1  UNL1        0.0001
     26 C         138.9221  138.7864  163.3659 C.ar    1  UNL1        0.0045
     27 C         139.8778  145.8950  161.7655 C.3     1  UNL1        0.0022
     28 C         139.8206  144.6627  162.6187 C.3     1  UNL1        0.0269
     29 C         139.7711  144.7865  164.1128 C.3     1  UNL1        0.0022
@<TRIPOS>BOND
     1    27    28    1
     2    28    29    1
     3    28    16    1
     4    16    17    1
     5    17    18   am
     6    18    19    2
     7    18    21    1
     8    21    22   ar
     9    22    23   ar
    10    23    24   ar
    11    24    25   ar
    12    25    26   ar
    13    16     1    1
    14     1     2    2
    15     1     3   am
    16     3     4    1
    17     4     5    1
    18     5     6    1
    19     6     9    1
    20     9    10   ar
    21    10    11   ar
    22    11    12   ar
    23    12    13    1
    24    12    14   ar
    25    14    15   ar
    26     6     7    1
    27     7     8    1
    28    26    21   ar
    29     8     3    1
    30    15     9   ar
    31    17    20    1
@<TRIPOS>MOLECULE
*****
 29 31 0 0 0
SMALL
GASTEIGER

@<TRIPOS>ATOM
      1 C         143.4774  141.9267  163.6068 C.2     1  UNL1        0.2435
      2 O         144.8733  141.7849  164.1373 O.2     1  UNL1       -0.2731
      3 N         143.0363  141.1100  162.4285 N.am    1  UNL1       -0.2782
      4 C         141.6405  141.2518  161.8980 C.3     1  UNL1        0.0938
      5 C         141.1993  140.4351  160.7197 C.3     1  UNL1        0.0259
      6 C         142.1541  139.4765  160.0719 C.3     1  UNL1        0.0257
      7 C         143.5500  139.3347  160.6024 C.3     1  UNL1        0.0259
      8 C         143.9911  140.1515  161.7807 C.3     1  UNL1        0.0938
      9 C         141.7130  138.6598  158.8936 C.ar    1  UNL1       -0.0223
     10 C         142.6976  137.7834  158.1779 C.ar    1  UNL1       -0.0034
     11 C         142.2566  136.9666  156.9995 C.ar    1  UNL1        0.0111
     12 C         140.8309  137.0263  156.5370 C.ar    1  UNL1        0.0577
     13 CL        140.3898  136.2095  155.3588 Cl      1  UNL1       -0.0822
     14 C         139.8463  137.9028  157.2529 C.ar    1  UNL1        0.0111
     15 C         140.2873  138.7195  158.4311 C.ar    1  UNL1       -0.0034
     16 C         142.5226  142.8853  164.2546 C.3     1  UNL1        0.1489
     17 N         141.5657  142.3979  165.3020 N.am    1  UNL1       -0.2948
     18 C         142.0200  142.2545  166.7243 C.2     1  UNL1        0.2461
     19 O         143.4310  142.5983  167.0993 O.2     1  UNL1       -0.2701
     20 H         140.6396  142.1723  165.0559 H       1  UNL1        0.1501
     21 C         141.0631  141.7672  167.7717 C.ar    1  UNL1        0.0534
     22 C         140.3215  140.4792  167.5691 C.ar    1  UNL1        0.0045
     23 C         139.3647  139.9920  168.6165 C.ar    1  UNL1        0.0001
     24 C         139.1495  140.7927  169.8665 C.ar    1  UNL1        0.0000
     25 C         139.8910  142.0807  170.0691 C.ar    1  UNL1        0.0001
     26 C         140.8479  142.5679  169.0217 C.ar    1  UNL1        0.0045
     27 C         143.7674  145.1539  164.0237 C.3     1  UNL1        0.0022
     28 C         142.5247  144.3310  163.8550 C.3     1  UNL1        0.0269
     29 C         141.2841  144.9539  163.2868 C.3     1  UNL1        0.0022
@<TRIPOS>BOND
     1    27    28    1
     2    28    29    1
     3    28    16    1
     4    16    17    1
     5    17    18   am
     6    18    19    2
     7    18    21    1
     8    21    22   ar
     9    22    23   ar
    10    23    24   ar
    11    24    25   ar
    12    25    26   ar
    13    16     1    1
    14     1     2    2
    15     1     3   am
    16     3     4    1
    17     4     5    1
    18     5     6    1
    19     6     9    1
    20     9    10   ar
    21    10    11   ar
    22    11    12   ar
    23    12    13    1
    24    12    14   ar
    25    14    15   ar
    26     6     7    1
    27     7     8    1
    28    26    21   ar
    29     8     3    1
    30    15     9   ar
    31    17    20    1
@<TRIPOS>MOLECULE
*****
 29 31 0 0 0
SMALL
GASTEIGER

@<TRIPOS>ATOM
      1 C         143.8440  141.3532  160.8340 C.2     1  UNL1        0.2435
      2 O         144.4921  142.5956  160.2987 O.2     1  UNL1       -0.2731
      3 N         143.4724  140.2393  159.9006 N.am    1  UNL1       -0.2782
      4 C         142.8244  138.9970  160.4360 C.3     1  UNL1        0.0938
      5 C         142.4528  137.8831  159.5026 C.3     1  UNL1        0.0259
      6 C         142.7292  138.0115  158.0339 C.3     1  UNL1        0.0257
      7 C         143.3773  139.2539  157.4986 C.3     1  UNL1        0.0259
      8 C         143.7489  140.3678  158.4319 C.3     1  UNL1        0.0938
      9 C         142.3577  136.8977  157.1006 C.ar    1  UNL1       -0.0223
     10 C         141.1668  137.0399  156.1997 C.ar    1  UNL1       -0.0034
     11 C         140.7952  135.9260  155.2663 C.ar    1  UNL1        0.0111
     12 C         141.6144  134.6699  155.2338 C.ar    1  UNL1        0.0577
     13 CL        141.2429  133.5561  154.3004 Cl      1  UNL1       -0.0822
     14 C         142.8053  134.5277  156.1347 C.ar    1  UNL1        0.0111
     15 C         143.1769  135.6416  157.0681 C.ar    1  UNL1       -0.0034
     16 C         143.5676  141.2247  162.3027 C.3     1  UNL1        0.1489
     17 N         142.2077  141.5569  162.8418 N.am    1  UNL1       -0.2948
     18 C         141.8151  142.9886  163.0561 C.2     1  UNL1        0.2461
     19 O         142.7823  144.0882  162.7314 O.2     1  UNL1       -0.2701
     20 H         141.5729  140.8352  163.0549 H       1  UNL1        0.1501
     21 C         140.4552  143.3208  163.5951 C.ar    1  UNL1        0.0534
     22 C         140.2763  144.5008  164.5037 C.ar    1  UNL1        0.0045
     23 C         138.9165  144.8330  165.0427 C.ar    1  UNL1        0.0001
     24 C         137.7356  143.9851  164.6732 C.ar    1  UNL1        0.0000
     25 C         137.9145  142.8051  163.7646 C.ar    1  UNL1        0.0001
     26 C         139.2743  142.4729  163.2256 C.ar    1  UNL1        0.0045
     27 C         144.6005  139.3838  163.8171 C.3     1  UNL1        0.0022
     28 C         144.6509  140.7641  163.2323 C.3     1  UNL1        0.0269
     29 C         145.7845  141.6839  163.5771 C.3     1  UNL1        0.0022
@<TRIPOS>BOND
     1    27    28    1
     2    28    29    1
     3    28    16    1
     4    16    17    1
     5    17    18   am
     6    18    19    2
     7    18    21    1
     8    21    22   ar
     9    22    23   ar
    10    23    24   ar
    11    24    25   ar
    12    25    26   ar
    13    16     1    1
    14     1     2    2
    15     1     3   am
    16     3     4    1
    17     4     5    1
    18     5     6    1
    19     6     9    1
    20     9    10   ar
    21    10    11   ar
    22    11    12   ar
    23    12    13    1
    24    12    14   ar
    25    14    15   ar
    26     6     7    1
    27     7     8    1
    28    26    21   ar
    29     8     3    1
    30    15     9   ar
    31    17    20    1
@<TRIPOS>MOLECULE
*****
 29 31 0 0 0
SMALL
GASTEIGER

@<TRIPOS>ATOM
      1 C         139.2306  140.4748  163.9990 C.2     1  UNL1        0.2435
      2 O         137.8372  140.2168  164.4913 O.2     1  UNL1       -0.2731
      3 N         139.4502  141.3111  162.7734 N.am    1  UNL1       -0.2782
      4 C         140.8435  141.5690  162.2812 C.3     1  UNL1        0.0938
      5 C         141.0632  142.4053  161.0555 C.3     1  UNL1        0.0259
      6 C         139.8895  142.9837  160.3219 C.3     1  UNL1        0.0257
      7 C         138.4962  142.7257  160.8142 C.3     1  UNL1        0.0259
      8 C         138.2766  141.8895  162.0398 C.3     1  UNL1        0.0938
      9 C         140.1092  143.8200  159.0963 C.ar    1  UNL1       -0.0223
     10 C         139.3787  143.4963  157.8268 C.ar    1  UNL1       -0.0034
     11 C         139.5983  144.3326  156.6010 C.ar    1  UNL1        0.0111
     12 C         140.5484  145.4925  156.6448 C.ar    1  UNL1        0.0577
     13 CL        140.7680  146.3288  155.4191 Cl      1  UNL1       -0.0822
     14 C         141.2789  145.8162  157.9144 C.ar    1  UNL1        0.0111
     15 C         141.0592  144.9799  159.1401 C.ar    1  UNL1       -0.0034
     16 C         140.4042  139.8964  164.7326 C.3     1  UNL1        0.1489
     17 N         141.1024  140.7043  165.7861 N.am    1  UNL1       -0.2948
     18 C         140.6066  140.6795  167.2016 C.2     1  UNL1        0.2461
     19 O         139.4125  139.8469  167.5635 O.2     1  UNL1       -0.2701
     20 H         141.8861  141.2508  165.5486 H       1  UNL1        0.1501
     21 C         141.3048  141.4874  168.2551 C.ar    1  UNL1        0.0534
     22 C         142.7088  141.1438  168.6560 C.ar    1  UNL1        0.0045
     23 C         143.4069  141.9517  169.7095 C.ar    1  UNL1        0.0001
     24 C         142.7011  143.1031  170.3621 C.ar    1  UNL1        0.0000
     25 C         141.2971  143.4467  169.9613 C.ar    1  UNL1        0.0001
     26 C         140.5989  142.6388  168.9078 C.ar    1  UNL1        0.0045
     27 C         140.0784  137.6359  163.4941 C.3     1  UNL1        0.0022
     28 C         140.8796  138.5102  164.4126 C.3     1  UNL1        0.0269
     29 C         142.1562  137.9983  165.0111 C.3     1  UNL1        0.0022
@<TRIPOS>BOND
     1    27    28    1
     2    28    29    1
     3    28    16    1
     4    16    17    1
     5    17    18   am
     6    18    19    2
     7    18    21    1
     8    21    22   ar
     9    22    23   ar
    10    23    24   ar
    11    24    25   ar
    12    25    26   ar
    13    16     1    1
    14     1     2    2
    15     1     3   am
    16     3     4    1
    17     4     5    1
    18     5     6    1
    19     6     9    1
    20     9    10   ar
    21    10    11   ar
    22    11    12   ar
    23    12    13    1
    24    12    14   ar
    25    14    15   ar
    26     6     7    1
    27     7     8    1
    28    26    21   ar
    29     8     3    1
    30    15     9   ar
    31    17    20    1
@<TRIPOS>MOLECULE
*****
 29 31 0 0 0
SMALL
GASTEIGER

@<TRIPOS>ATOM
      1 C         140.6942  138.1516  158.3326 C.2     1  UNL1        0.2435
      2 O         139.5115  137.9762  157.4268 O.2     1  UNL1       -0.2731
      3 N         140.4867  138.4114  159.7953 N.am    1  UNL1       -0.2782
      4 C         141.6693  138.5868  160.7010 C.3     1  UNL1        0.0938
      5 C         141.4618  138.8466  162.1637 C.3     1  UNL1        0.0259
      6 C         140.0716  138.9310  162.7206 C.3     1  UNL1        0.0257
      7 C         138.8889  138.7556  161.8148 C.3     1  UNL1        0.0259
      8 C         139.0964  138.4958  160.3521 C.3     1  UNL1        0.0938
      9 C         139.8640  139.1908  164.1833 C.ar    1  UNL1       -0.0223
     10 C         141.0064  139.6688  165.0296 C.ar    1  UNL1       -0.0034
     11 C         140.7989  139.9287  166.4923 C.ar    1  UNL1        0.0111
     12 C         139.4489  139.7105  167.1086 C.ar    1  UNL1        0.0577
     13 CL        139.2413  139.9703  168.5713 Cl      1  UNL1       -0.0822
     14 C         138.3064  139.2324  166.2622 C.ar    1  UNL1        0.0111
     15 C         138.5140  138.9726  164.7996 C.ar    1  UNL1       -0.0034
     16 C         142.0845  138.0672  157.7757 C.3     1  UNL1        0.1489
     17 N         142.8014  136.7499  157.7449 N.am    1  UNL1       -0.2948
     18 C         142.5056  135.7604  156.6572 C.2     1  UNL1        0.2461
     19 O         141.4929  136.0880  155.6003 O.2     1  UNL1       -0.2701
     20 H         143.4661  136.5349  158.4386 H       1  UNL1        0.1501
     21 C         143.2225  134.4431  156.6264 C.ar    1  UNL1        0.0534
     22 C         143.9726  133.9690  157.8357 C.ar    1  UNL1        0.0045
     23 C         144.6895  132.6518  157.8048 C.ar    1  UNL1        0.0001
     24 C         144.6562  131.8086  156.5646 C.ar    1  UNL1        0.0000
     25 C         143.9061  132.2827  155.3553 C.ar    1  UNL1        0.0001
     26 C         143.1893  133.6000  155.3862 C.ar    1  UNL1        0.0045
     27 C         143.6105  140.1347  158.1587 C.3     1  UNL1        0.0022
     28 C         142.7578  139.3000  157.2497 C.3     1  UNL1        0.0269
     29 C         142.5784  139.6982  155.8147 C.3     1  UNL1        0.0022
@<TRIPOS>BOND
     1    27    28    1
     2    28    29    1
     3    28    16    1
     4    16    17    1
     5    17    18   am
     6    18    19    2
     7    18    21    1
     8    21    22   ar
     9    22    23   ar
    10    23    24   ar
    11    24    25   ar
    12    25    26   ar
    13    16     1    1
    14     1     2    2
    15     1     3   am
    16     3     4    1
    17     4     5    1
    18     5     6    1
    19     6     9    1
    20     9    10   ar
    21    10    11   ar
    22    11    12   ar
    23    12    13    1
    24    12    14   ar
    25    14    15   ar
    26     6     7    1
    27     7     8    1
    28    26    21   ar
    29     8     3    1
    30    15     9   ar
    31    17    20    1
@<TRIPOS>MOLECULE
*****
 29 31 0 0 0
SMALL
GASTEIGER

@<TRIPOS>ATOM
      1 C         141.3161  137.7788  157.1549 C.2     1  UNL1        0.2435
      2 O         140.0544  138.3590  156.5877 O.2     1  UNL1       -0.2731
      3 N         141.8375  136.4701  156.6399 N.am    1  UNL1       -0.2782
      4 C         143.0991  135.8900  157.2071 C.3     1  UNL1        0.0938
      5 C         143.6206  134.5812  156.6921 C.3     1  UNL1        0.0259
      6 C         142.8804  133.8525  155.6099 C.3     1  UNL1        0.0257
      7 C         141.6187  134.4327  155.0427 C.3     1  UNL1        0.0259
      8 C         141.0973  135.7414  155.5577 C.3     1  UNL1        0.0938
      9 C         143.4018  132.5438  155.0949 C.ar    1  UNL1       -0.0223
     10 C         142.9630  132.0375  153.7529 C.ar    1  UNL1       -0.0034
     11 C         143.4844  130.7287  153.2378 C.ar    1  UNL1        0.0111
     12 C         144.4446  129.9262  154.0648 C.ar    1  UNL1        0.0577
     13 CL        144.9660  128.6175  153.5499 Cl      1  UNL1       -0.0822
     14 C         144.8834  130.4325  155.4070 C.ar    1  UNL1        0.0111
     15 C         144.3620  131.7413  155.9220 C.ar    1  UNL1       -0.0034
     16 C         142.0563  138.5075  158.2371 C.3     1  UNL1        0.1489
     17 N         141.8586  138.1201  159.6727 N.am    1  UNL1       -0.2948
     18 C         140.6185  138.5468  160.4007 C.2     1  UNL1        0.2461
     19 O         139.5760  139.3609  159.6931 O.2     1  UNL1       -0.2701
     20 H         142.5427  137.5858  160.1371 H       1  UNL1        0.1501
     21 C         140.4207  138.1595  161.8363 C.ar    1  UNL1        0.0534
     22 C         139.0491  138.2004  162.4421 C.ar    1  UNL1        0.0045
     23 C         138.8514  137.8130  163.8776 C.ar    1  UNL1        0.0001
     24 C         140.0253  137.3848  164.7074 C.ar    1  UNL1        0.0000
     25 C         141.3969  137.3439  164.1016 C.ar    1  UNL1        0.0001
     26 C         141.5946  137.7312  162.6661 C.ar    1  UNL1        0.0045
     27 C         143.3791  140.6364  158.9209 C.3     1  UNL1        0.0022
     28 C         142.9942  139.6234  157.8838 C.3     1  UNL1        0.0269
     29 C         143.5473  139.7264  156.4932 C.3     1  UNL1        0.0022
@<TRIPOS>BOND
     1    27    28    1
     2    28    29    1
     3    28    16    1
     4    16    17    1
     5    17    18   am
     6    18    19    2
     7    18    21    1
     8    21    22   ar
     9    22    23   ar
    10    23    24   ar
    11    24    25   ar
    12    25    26   ar
    13    16     1    1
    14     1     2    2
    15     1     3   am
    16     3     4    1
    17     4     5    1
    18     5     6    1
    19     6     9    1
    20     9    10   ar
    21    10    11   ar
    22    11    12   ar
    23    12    13    1
    24    12    14   ar
    25    14    15   ar
    26     6     7    1
    27     7     8    1
    28    26    21   ar
    29     8     3    1
    30    15     9   ar
    31    17    20    1
@<TRIPOS>MOLECULE
*****
 29 31 0 0 0
SMALL
GASTEIGER

@<TRIPOS>ATOM
      1 C         140.8301  138.2900  163.4791 C.2     1  UNL1        0.2435
      2 O         141.2986  137.0100  164.1055 O.2     1  UNL1       -0.2731
      3 N         141.5998  138.8944  162.3423 N.am    1  UNL1       -0.2782
      4 C         141.1313  140.1743  161.7161 C.3     1  UNL1        0.0938
      5 C         141.9009  140.7787  160.5792 C.3     1  UNL1        0.0259
      6 C         143.1391  140.1032  160.0687 C.3     1  UNL1        0.0257
      7 C         143.6076  138.8232  160.6951 C.3     1  UNL1        0.0259
      8 C         142.8379  138.2188  161.8319 C.3     1  UNL1        0.0938
      9 C         143.9088  140.7075  158.9319 C.ar    1  UNL1       -0.0223
     10 C         144.5726  142.0419  159.1012 C.ar    1  UNL1       -0.0034
     11 C         145.3423  142.6464  157.9644 C.ar    1  UNL1        0.0111
     12 C         145.4481  141.9163  156.6583 C.ar    1  UNL1        0.0577
     13 CL        146.2178  142.5207  155.5216 Cl      1  UNL1       -0.0822
     14 C         144.7843  140.5819  156.4891 C.ar    1  UNL1        0.0111
     15 C         144.0146  139.9775  157.6259 C.ar    1  UNL1       -0.0034
     16 C         139.5920  138.9655  163.9896 C.3     1  UNL1        0.1489
     17 N         139.5076  139.3912  165.4255 N.am    1  UNL1       -0.2948
     18 C         140.1186  140.6904  165.8598 C.2     1  UNL1        0.2461
     19 O         140.8139  141.5641  164.8582 O.2     1  UNL1       -0.2701
     20 H         139.0512  138.8178  166.0829 H       1  UNL1        0.1501
     21 C         140.0342  141.1160  167.2957 C.ar    1  UNL1        0.0534
     22 C         139.4390  140.1934  168.3177 C.ar    1  UNL1        0.0045
     23 C         139.3547  140.6191  169.7536 C.ar    1  UNL1        0.0001
     24 C         139.8655  141.9673  170.1674 C.ar    1  UNL1        0.0000
     25 C         140.4607  142.8899  169.1454 C.ar    1  UNL1        0.0001
     26 C         140.5451  142.4643  167.7096 C.ar    1  UNL1        0.0045
     27 C         137.6955  140.5172  163.1262 C.3     1  UNL1        0.0022
     28 C         138.4382  139.2155  163.0643 C.3     1  UNL1        0.0269
     29 C         138.0271  138.1637  162.0770 C.3     1  UNL1        0.0022
@<TRIPOS>BOND
     1    27    28    1
     2    28    29    1
     3    28    16    1
     4    16    17    1
     5    17    18   am
     6    18    19    2
     7    18    21    1
     8    21    22   ar
     9    22    23   ar
    10    23    24   ar
    11    24    25   ar
    12    25    26   ar
    13    16     1    1
    14     1     2    2
    15     1     3   am
    16     3     4    1
    17     4     5    1
    18     5     6    1
    19     6     9    1
    20     9    10   ar
    21    10    11   ar
    22    11    12   ar
    23    12    13    1
    24    12    14   ar
    25    14    15   ar
    26     6     7    1
    27     7     8    1
    28    26    21   ar
    29     8     3    1
    30    15     9   ar
    31    17    20    1
@<TRIPOS>MOLECULE
*****
 29 31 0 0 0
SMALL
GASTEIGER

@<TRIPOS>ATOM
      1 C         143.6670  140.3239  163.7429 C.2     1  UNL1        0.2435
      2 O         145.1214  140.2122  164.0928 O.2     1  UNL1       -0.2731
      3 N         143.2311  141.2271  162.6275 N.am    1  UNL1       -0.2782
      4 C         141.7768  141.3387  162.2777 C.3     1  UNL1        0.0938
      5 C         141.3408  142.2419  161.1622 C.3     1  UNL1        0.0259
      6 C         142.3593  143.0335  160.3966 C.3     1  UNL1        0.0257
      7 C         143.8137  142.9218  160.7464 C.3     1  UNL1        0.0259
      8 C         144.2496  142.0186  161.8619 C.3     1  UNL1        0.0938
      9 C         141.9234  143.9367  159.2812 C.ar    1  UNL1       -0.0223
     10 C         140.7234  144.8194  159.4564 C.ar    1  UNL1       -0.0034
     11 C         140.2874  145.7226  158.3409 C.ar    1  UNL1        0.0111
     12 C         141.0516  145.7431  157.0503 C.ar    1  UNL1        0.0577
     13 CL        140.6157  146.6463  155.9349 Cl      1  UNL1       -0.0822
     14 C         142.2516  144.8603  156.8751 C.ar    1  UNL1        0.0111
     15 C         142.6875  143.9571  157.9905 C.ar    1  UNL1       -0.0034
     16 C         142.6486  139.5323  164.5085 C.3     1  UNL1        0.1489
     17 N         142.2273  139.9774  165.8777 N.am    1  UNL1       -0.2948
     18 C         140.9267  140.7011  166.0640 C.2     1  UNL1        0.2461
     19 O         140.0474  140.9797  164.8812 O.2     1  UNL1       -0.2701
     20 H         142.8044  139.7945  166.6540 H       1  UNL1        0.1501
     21 C         140.5055  141.1461  167.4331 C.ar    1  UNL1        0.0534
     22 C         140.8366  142.5303  167.9068 C.ar    1  UNL1        0.0045
     23 C         140.4153  142.9753  169.2759 C.ar    1  UNL1        0.0001
     24 C         139.6629  142.0361  170.1713 C.ar    1  UNL1        0.0000
     25 C         139.3318  140.6519  169.6977 C.ar    1  UNL1        0.0001
     26 C         139.7531  140.2069  168.3286 C.ar    1  UNL1        0.0045
     27 C         142.4442  137.8718  162.5209 C.3     1  UNL1        0.0022
     28 C         142.0514  138.2957  163.9050 C.3     1  UNL1        0.0269
     29 C         141.0613  137.4831  164.6857 C.3     1  UNL1        0.0022
@<TRIPOS>BOND
     1    27    28    1
     2    28    29    1
     3    28    16    1
     4    16    17    1
     5    17    18   am
     6    18    19    2
     7    18    21    1
     8    21    22   ar
     9    22    23   ar
    10    23    24   ar
    11    24    25   ar
    12    25    26   ar
    13    16     1    1
    14     1     2    2
    15     1     3   am
    16     3     4    1
    17     4     5    1
    18     5     6    1
    19     6     9    1
    20     9    10   ar
    21    10    11   ar
    22    11    12   ar
    23    12    13    1
    24    12    14   ar
    25    14    15   ar
    26     6     7    1
    27     7     8    1
    28    26    21   ar
    29     8     3    1
    30    15     9   ar
    31    17    20    1
@<TRIPOS>MOLECULE
*****
 29 31 0 0 0
SMALL
GASTEIGER

@<TRIPOS>ATOM
      1 C         140.8849  144.3193  163.0261 C.2     1  UNL1        0.2435
      2 O         139.9064  145.1510  163.8014 O.2     1  UNL1       -0.2731
      3 N         141.0316  144.5182  161.5467 N.am    1  UNL1       -0.2782
      4 C         142.0101  143.6865  160.7715 C.3     1  UNL1        0.0938
      5 C         142.1568  143.8853  159.2920 C.3     1  UNL1        0.0259
      6 C         141.3250  144.9159  158.5876 C.3     1  UNL1        0.0257
      7 C         140.3465  145.7476  159.3629 C.3     1  UNL1        0.0259
      8 C         140.1998  145.5488  160.8423 C.3     1  UNL1        0.0938
      9 C         141.4717  145.1148  157.1082 C.ar    1  UNL1       -0.0223
     10 C         142.4808  144.3136  156.3402 C.ar    1  UNL1       -0.0034
     11 C         142.6275  144.5125  154.8606 C.ar    1  UNL1        0.0111
     12 C         141.7652  145.5126  154.1492 C.ar    1  UNL1        0.0577
     13 CL        141.9119  145.7114  152.6697 Cl      1  UNL1       -0.0822
     14 C         140.7561  146.3138  154.9172 C.ar    1  UNL1        0.0111
     15 C         140.6094  146.1149  156.3967 C.ar    1  UNL1       -0.0034
     16 C         141.7167  143.2887  163.7305 C.3     1  UNL1        0.1489
     17 N         141.1939  141.8934  163.9034 N.am    1  UNL1       -0.2948
     18 C         140.2872  141.5692  165.0534 C.2     1  UNL1        0.2461
     19 O         139.9032  142.6404  166.0307 O.2     1  UNL1       -0.2701
     20 H         141.4460  141.1903  163.2619 H       1  UNL1        0.1501
     21 C         139.7645  140.1739  165.2263 C.ar    1  UNL1        0.0534
     22 C         140.4068  139.0358  164.4900 C.ar    1  UNL1        0.0045
     23 C         139.8840  137.6405  164.6629 C.ar    1  UNL1        0.0001
     24 C         138.7190  137.3834  165.5721 C.ar    1  UNL1        0.0000
     25 C         138.0768  138.5215  166.3084 C.ar    1  UNL1        0.0001
     26 C         138.5995  139.9167  166.1355 C.ar    1  UNL1        0.0045
     27 C         143.6297  145.0234  164.0149 C.3     1  UNL1        0.0022
     28 C         143.0711  143.6534  164.2619 C.3     1  UNL1        0.0269
     29 C         143.8669  142.6482  165.0405 C.3     1  UNL1        0.0022
@<TRIPOS>BOND
     1    27    28    1
     2    28    29    1
     3    28    16    1
     4    16    17    1
     5    17    18   am
     6    18    19    2
     7    18    21    1
     8    21    22   ar
     9    22    23   ar
    10    23    24   ar
    11    24    25   ar
    12    25    26   ar
    13    16     1    1
    14     1     2    2
    15     1     3   am
    16     3     4    1
    17     4     5    1
    18     5     6    1
    19     6     9    1
    20     9    10   ar
    21    10    11   ar
    22    11    12   ar
    23    12    13    1
    24    12    14   ar
    25    14    15   ar
    26     6     7    1
    27     7     8    1
    28    26    21   ar
    29     8     3    1
    30    15     9   ar
    31    17    20    1
