@<TRIPOS>MOLECULE
*****
 35 39 0 0 0
SMALL
GASTEIGER

@<TRIPOS>ATOM
      1 C         139.7686  138.2099  164.5816 C.ar    1  UNL1        0.1383
      2 C         138.4536  137.8755  165.2208 C.ar    1  UNL1        0.0366
      3 C         138.1187  138.4212  166.5773 C.ar    1  UNL1       -0.0015
      4 C         139.0989  139.3014  167.2945 C.ar    1  UNL1       -0.0259
      5 C         140.4140  139.6359  166.6553 C.ar    1  UNL1       -0.0218
      6 C         140.7489  139.0901  165.2988 C.ar    1  UNL1        0.0324
      7 C         141.3943  140.5161  167.3725 C.3     1  UNL1        0.0411
      8 C         141.0594  141.0618  168.7289 C.3     1  UNL1        0.0621
      9 C         139.7443  140.7274  169.3682 C.3     1  UNL1        0.0210
     10 C         138.7640  139.8472  168.6510 C.3     1  UNL1        0.0274
     11 N         142.0397  141.9420  169.4461 N.3     1  UNL1       -0.2735
     12 C         143.4753  141.8126  169.8612 C.3     1  UNL1        0.0735
     13 C         143.4259  143.1868  170.4604 C.3     1  UNL1        0.0346
     14 C         141.9904  143.3162  170.0454 C.3     1  UNL1        0.0735
     15 O         140.1035  137.6642  163.2251 O.3     1  UNL1       -0.4739
     16 C         139.4971  138.2790  161.9987 C.3     1  UNL1        0.2241
     17 C         138.0154  138.5007  161.9251 C.3     1  UNL1        0.1387
     18 N         137.4741  139.7479  161.2916 N.3     1  UNL1       -0.1741
     19 H         137.8637  139.7928  160.3499 H       1  UNL1        0.1490
     20 S         137.7258  141.0825  161.9283 S.O2    1  UNL1        0.0785
     21 O         138.1397  141.6390  160.5983 O.2     1  UNL1       -0.1515
     22 O         137.3119  140.5260  163.2583 O.2     1  UNL1       -0.1515
     23 C         138.3226  144.8940  165.5336 C.3     1  UNL1        0.1321
     24 N         138.2518  144.1691  164.2223 N.ar    1  UNL1       -0.3047
     25 C         138.4778  144.7727  162.8678 C.ar    1  UNL1        0.1800
     26 N         138.3082  143.6900  161.8436 N.ar    1  UNL1       -0.2042
     27 C         137.9775  142.4171  162.5651 C.ar    1  UNL1        0.2215
     28 C         137.9427  142.7132  164.0352 C.ar    1  UNL1        0.1171
     29 C         142.7093  140.8505  166.7332 C.3     1  UNL1        0.0320
     30 C         142.8294  142.0587  165.8523 C.ar    1  UNL1       -0.0218
     31 C         144.1831  142.5470  165.4294 C.ar    1  UNL1       -0.0043
     32 C         144.3032  143.7551  164.5485 C.ar    1  UNL1       -0.0003
     33 C         143.0694  144.4749  164.0904 C.ar    1  UNL1       -0.0000
     34 C         141.7156  143.9866  164.5133 C.ar    1  UNL1       -0.0003
     35 C         141.5956  142.7784  165.3942 C.ar    1  UNL1       -0.0043
@<TRIPOS>BOND
     1    23    24    1
     2    24    25   ar
     3    25    26   ar
     4    26    27   ar
     5    27    20    1
     6    20    21    2
     7    20    22    2
     8    20    18    1
     9    18    17    1
    10    17    16    1
    11    16    15    1
    12    15     1    1
    13     1     2   ar
    14     2     3   ar
    15     3     4   ar
    16     4     5   ar
    17     5     6   ar
    18     5     7    1
    19     7    29    1
    20    29    30    1
    21    30    31   ar
    22    31    32   ar
    23    32    33   ar
    24    33    34   ar
    25    34    35   ar
    26     7     8    1
    27     8    11    1
    28    11    12    1
    29    12    13    1
    30    13    14    1
    31     8     9    1
    32     9    10    1
    33    27    28   ar
    34    28    24   ar
    35     6     1   ar
    36    35    30   ar
    37    14    11    1
    38    10     4    1
    39    18    19    1
@<TRIPOS>MOLECULE
*****
 35 39 0 0 0
SMALL
GASTEIGER

@<TRIPOS>ATOM
      1 C         140.6294  137.8021  163.1546 C.ar    1  UNL1        0.1383
      2 C         139.1620  137.6950  163.4461 C.ar    1  UNL1        0.0366
      3 C         138.6058  138.2679  164.7159 C.ar    1  UNL1       -0.0015
      4 C         139.5171  138.9481  165.6941 C.ar    1  UNL1       -0.0259
      5 C         140.9846  139.0552  165.4026 C.ar    1  UNL1       -0.0218
      6 C         141.5407  138.4823  164.1328 C.ar    1  UNL1        0.0324
      7 C         141.8959  139.7354  166.3808 C.3     1  UNL1        0.0411
      8 C         141.3397  140.3083  167.6506 C.3     1  UNL1        0.0621
      9 C         139.8722  140.2012  167.9422 C.3     1  UNL1        0.0210
     10 C         138.9609  139.5211  166.9639 C.3     1  UNL1        0.0274
     11 N         142.2510  140.9885  168.6288 N.3     1  UNL1       -0.2735
     12 C         143.0112  140.5562  169.8476 C.3     1  UNL1        0.0735
     13 C         143.5398  141.9503  170.0122 C.3     1  UNL1        0.0346
     14 C         142.7796  142.3825  168.7936 C.3     1  UNL1        0.0735
     15 O         141.1857  137.2291  161.8848 O.3     1  UNL1       -0.4739
     16 C         141.4248  138.1197  160.7017 C.3     1  UNL1        0.2241
     17 C         140.2621  138.6795  159.9371 C.3     1  UNL1        0.1387
     18 N         139.9648  140.1486  159.9934 N.3     1  UNL1       -0.1741
     19 H         140.8014  140.6311  159.6652 H       1  UNL1        0.1490
     20 S         139.5797  140.7865  161.2952 S.O2    1  UNL1        0.0785
     21 O         138.2206  140.1589  161.2007 O.2     1  UNL1       -0.1515
     22 O         140.9388  141.4141  161.3897 O.2     1  UNL1       -0.1515
     23 C         139.8446  143.3525  165.9025 C.3     1  UNL1        0.1321
     24 N         139.3164  142.6039  164.7148 N.ar    1  UNL1       -0.3047
     25 C         137.8877  142.2081  164.4861 C.ar    1  UNL1        0.1800
     26 N         137.8125  141.4792  163.1773 N.ar    1  UNL1       -0.2042
     27 C         139.1946  141.4244  162.5971 C.ar    1  UNL1        0.2215
     28 C         140.1241  142.1195  163.5473 C.ar    1  UNL1        0.1171
     29 C         143.3633  139.8425  166.0893 C.3     1  UNL1        0.0320
     30 C         143.8617  140.8701  165.1167 C.ar    1  UNL1       -0.0218
     31 C         143.3486  142.2780  165.1846 C.ar    1  UNL1       -0.0043
     32 C         143.8470  143.3055  164.2121 C.ar    1  UNL1       -0.0003
     33 C         144.8585  142.9252  163.1717 C.ar    1  UNL1       -0.0000
     34 C         145.3716  141.5173  163.1039 C.ar    1  UNL1       -0.0003
     35 C         144.8732  140.4898  164.0764 C.ar    1  UNL1       -0.0043
@<TRIPOS>BOND
     1    23    24    1
     2    24    25   ar
     3    25    26   ar
     4    26    27   ar
     5    27    20    1
     6    20    21    2
     7    20    22    2
     8    20    18    1
     9    18    17    1
    10    17    16    1
    11    16    15    1
    12    15     1    1
    13     1     2   ar
    14     2     3   ar
    15     3     4   ar
    16     4     5   ar
    17     5     6   ar
    18     5     7    1
    19     7    29    1
    20    29    30    1
    21    30    31   ar
    22    31    32   ar
    23    32    33   ar
    24    33    34   ar
    25    34    35   ar
    26     7     8    1
    27     8    11    1
    28    11    12    1
    29    12    13    1
    30    13    14    1
    31     8     9    1
    32     9    10    1
    33    27    28   ar
    34    28    24   ar
    35     6     1   ar
    36    35    30   ar
    37    14    11    1
    38    10     4    1
    39    18    19    1
@<TRIPOS>MOLECULE
*****
 35 39 0 0 0
SMALL
GASTEIGER

@<TRIPOS>ATOM
      1 C         139.2461  143.1710  162.9151 C.ar    1  UNL1        0.1383
      2 C         137.9791  142.4023  162.6833 C.ar    1  UNL1        0.0366
      3 C         137.6057  141.2772  163.6023 C.ar    1  UNL1       -0.0015
      4 C         138.4993  140.9208  164.7532 C.ar    1  UNL1       -0.0259
      5 C         139.7663  141.6894  164.9850 C.ar    1  UNL1       -0.0218
      6 C         140.1397  142.8145  164.0659 C.ar    1  UNL1        0.0324
      7 C         140.6599  141.3330  166.1358 C.3     1  UNL1        0.0411
      8 C         140.2865  140.2079  167.0548 C.3     1  UNL1        0.0621
      9 C         139.0194  139.4392  166.8231 C.3     1  UNL1        0.0210
     10 C         138.1258  139.7956  165.6722 C.3     1  UNL1        0.0274
     11 N         141.1801  139.8515  168.2057 N.3     1  UNL1       -0.2735
     12 C         141.0761  139.9484  169.6990 C.3     1  UNL1        0.0735
     13 C         142.4438  139.3474  169.8332 C.3     1  UNL1        0.0346
     14 C         142.5478  139.2505  168.3400 C.3     1  UNL1        0.0735
     15 O         139.6195  144.2961  161.9960 O.3     1  UNL1       -0.4739
     16 C         139.8692  144.0255  160.5420 C.3     1  UNL1        0.2241
     17 C         141.0068  143.1395  160.1285 C.3     1  UNL1        0.1387
     18 N         140.7340  141.7496  159.6349 N.3     1  UNL1       -0.1741
     19 H         139.9088  141.8059  159.0379 H       1  UNL1        0.1490
     20 S         140.4849  140.6413  160.6144 S.O2    1  UNL1        0.0785
     21 O         141.7324  141.0176  161.3574 O.2     1  UNL1       -0.1515
     22 O         139.2375  140.2649  159.8714 O.2     1  UNL1       -0.1515
     23 C         141.0896  137.2329  164.6017 C.3     1  UNL1        0.1321
     24 N         140.5138  137.9662  163.4266 N.ar    1  UNL1       -0.3047
     25 C         139.1912  137.6882  162.7757 C.ar    1  UNL1        0.1800
     26 N         139.0195  138.6564  161.6431 N.ar    1  UNL1       -0.2042
     27 C         140.2358  139.5328  161.5939 C.ar    1  UNL1        0.2215
     28 C         141.1593  139.1062  162.6962 C.ar    1  UNL1        0.1171
     29 C         141.9269  142.1017  166.3676 C.3     1  UNL1        0.0320
     30 C         143.1416  141.8139  165.5359 C.ar    1  UNL1       -0.0218
     31 C         144.0254  142.9388  165.0847 C.ar    1  UNL1       -0.0043
     32 C         145.2400  142.6511  164.2531 C.ar    1  UNL1       -0.0003
     33 C         145.5710  141.2383  163.8725 C.ar    1  UNL1       -0.0000
     34 C         144.6873  140.1134  164.3237 C.ar    1  UNL1       -0.0003
     35 C         143.4725  140.4012  165.1554 C.ar    1  UNL1       -0.0043
@<TRIPOS>BOND
     1    23    24    1
     2    24    25   ar
     3    25    26   ar
     4    26    27   ar
     5    27    20    1
     6    20    21    2
     7    20    22    2
     8    20    18    1
     9    18    17    1
    10    17    16    1
    11    16    15    1
    12    15     1    1
    13     1     2   ar
    14     2     3   ar
    15     3     4   ar
    16     4     5   ar
    17     5     6   ar
    18     5     7    1
    19     7    29    1
    20    29    30    1
    21    30    31   ar
    22    31    32   ar
    23    32    33   ar
    24    33    34   ar
    25    34    35   ar
    26     7     8    1
    27     8    11    1
    28    11    12    1
    29    12    13    1
    30    13    14    1
    31     8     9    1
    32     9    10    1
    33    27    28   ar
    34    28    24   ar
    35     6     1   ar
    36    35    30   ar
    37    14    11    1
    38    10     4    1
    39    18    19    1
@<TRIPOS>MOLECULE
*****
 35 39 0 0 0
SMALL
GASTEIGER

@<TRIPOS>ATOM
      1 C         144.4253  142.2867  163.5300 C.ar    1  UNL1        0.1383
      2 C         145.2220  141.0289  163.3481 C.ar    1  UNL1        0.0366
      3 C         144.9712  139.8471  164.2371 C.ar    1  UNL1       -0.0015
      4 C         143.9237  139.9231  165.3081 C.ar    1  UNL1       -0.0259
      5 C         143.1270  141.1809  165.4900 C.ar    1  UNL1       -0.0218
      6 C         143.3778  142.3627  164.6010 C.ar    1  UNL1        0.0324
      7 C         142.0795  141.2569  166.5610 C.3     1  UNL1        0.0411
      8 C         141.8287  140.0751  167.4500 C.3     1  UNL1        0.0621
      9 C         142.6255  138.8173  167.2681 C.3     1  UNL1        0.0210
     10 C         143.6730  138.7412  166.1971 C.3     1  UNL1        0.0274
     11 N         140.7812  140.1512  168.5210 N.3     1  UNL1       -0.2735
     12 C         139.2953  139.9513  168.5674 C.3     1  UNL1        0.0735
     13 C         139.2999  140.2587  170.0355 C.3     1  UNL1        0.0346
     14 C         140.7857  140.4585  169.9891 C.3     1  UNL1        0.0735
     15 O         144.6761  143.4686  162.6409 O.3     1  UNL1       -0.4739
     16 C         143.6194  144.5202  162.4755 C.3     1  UNL1        0.2241
     17 C         142.4386  144.2638  161.5866 C.3     1  UNL1        0.1387
     18 N         141.6598  145.4153  161.0234 N.3     1  UNL1       -0.1741
     19 H         140.9237  145.6300  161.6960 H       1  UNL1        0.1490
     20 S         140.9982  145.2892  159.6831 S.O2    1  UNL1        0.0785
     21 O         139.7275  145.8406  160.2584 O.2     1  UNL1       -0.1515
     22 O         142.2690  144.7378  159.1078 O.2     1  UNL1       -0.1515
     23 C         138.5138  143.2826  155.4781 C.3     1  UNL1        0.1321
     24 N         139.1947  144.2407  156.4099 N.ar    1  UNL1       -0.3047
     25 C         139.4428  145.6972  156.1504 C.ar    1  UNL1        0.1800
     26 N         140.1485  146.2672  157.3450 N.ar    1  UNL1       -0.2042
     27 C         140.3367  145.1630  158.3427 C.ar    1  UNL1        0.2215
     28 C         139.7472  143.9107  157.7648 C.ar    1  UNL1        0.1171
     29 C         141.2828  142.5147  166.7429 C.3     1  UNL1        0.0320
     30 C         140.0815  142.7727  165.8824 C.ar    1  UNL1       -0.0218
     31 C         139.2791  141.6224  165.3503 C.ar    1  UNL1       -0.0043
     32 C         138.0778  141.8802  164.4899 C.ar    1  UNL1       -0.0003
     33 C         137.6788  143.2885  164.1616 C.ar    1  UNL1       -0.0000
     34 C         138.4811  144.4388  164.6936 C.ar    1  UNL1       -0.0003
     35 C         139.6825  144.1808  165.5541 C.ar    1  UNL1       -0.0043
@<TRIPOS>BOND
     1    23    24    1
     2    24    25   ar
     3    25    26   ar
     4    26    27   ar
     5    27    20    1
     6    20    21    2
     7    20    22    2
     8    20    18    1
     9    18    17    1
    10    17    16    1
    11    16    15    1
    12    15     1    1
    13     1     2   ar
    14     2     3   ar
    15     3     4   ar
    16     4     5   ar
    17     5     6   ar
    18     5     7    1
    19     7    29    1
    20    29    30    1
    21    30    31   ar
    22    31    32   ar
    23    32    33   ar
    24    33    34   ar
    25    34    35   ar
    26     7     8    1
    27     8    11    1
    28    11    12    1
    29    12    13    1
    30    13    14    1
    31     8     9    1
    32     9    10    1
    33    27    28   ar
    34    28    24   ar
    35     6     1   ar
    36    35    30   ar
    37    14    11    1
    38    10     4    1
    39    18    19    1
@<TRIPOS>MOLECULE
*****
 35 39 0 0 0
SMALL
GASTEIGER

@<TRIPOS>ATOM
      1 C         144.3564  142.2401  163.4400 C.ar    1  UNL1        0.1383
      2 C         145.1844  140.9986  163.2887 C.ar    1  UNL1        0.0366
      3 C         144.9805  139.8428  164.2228 C.ar    1  UNL1       -0.0015
      4 C         143.9487  139.9286  165.3082 C.ar    1  UNL1       -0.0259
      5 C         143.1207  141.1701  165.4594 C.ar    1  UNL1       -0.0218
      6 C         143.3246  142.3259  164.5253 C.ar    1  UNL1        0.0324
      7 C         142.0889  141.2559  166.5447 C.3     1  UNL1        0.0411
      8 C         141.8850  140.1001  167.4788 C.3     1  UNL1        0.0621
      9 C         142.7130  138.8585  167.3276 C.3     1  UNL1        0.0210
     10 C         143.7449  138.7727  166.2423 C.3     1  UNL1        0.0274
     11 N         140.8532  140.1859  168.5642 N.3     1  UNL1       -0.2735
     12 C         140.8812  140.4906  170.0327 C.3     1  UNL1        0.0735
     13 C         139.3940  140.3073  170.0990 C.3     1  UNL1        0.0346
     14 C         139.3659  140.0026  168.6307 C.3     1  UNL1        0.0735
     15 O         144.5602  143.3960  162.5058 O.3     1  UNL1       -0.4739
     16 C         143.5847  144.5354  162.4985 C.3     1  UNL1        0.2241
     17 C         142.3408  144.4524  161.6643 C.3     1  UNL1        0.1387
     18 N         142.1412  143.2975  160.7282 N.3     1  UNL1       -0.1741
     19 H         141.6074  143.6510  159.9341 H       1  UNL1        0.1490
     20 S         141.4411  142.0591  161.2037 S.O2    1  UNL1        0.0785
     21 O         140.3650  142.9037  161.8190 O.2     1  UNL1       -0.1515
     22 O         142.5172  141.2146  160.5883 O.2     1  UNL1       -0.1515
     23 C         137.8290  138.2588  161.8294 C.3     1  UNL1        0.1321
     24 N         139.0807  139.0738  161.9668 N.ar    1  UNL1       -0.3047
     25 C         140.2469  138.7556  162.8550 C.ar    1  UNL1        0.1800
     26 N         141.2730  139.8352  162.6772 N.ar    1  UNL1       -0.2042
     27 C         140.7410  140.8206  161.6792 C.ar    1  UNL1        0.2215
     28 C         139.3862  140.3500  161.2401 C.ar    1  UNL1        0.1171
     29 C         141.2609  142.4975  166.6960 C.3     1  UNL1        0.0320
     30 C         140.0427  142.6951  165.8432 C.ar    1  UNL1       -0.0218
     31 C         139.5488  144.0809  165.5508 C.ar    1  UNL1       -0.0043
     32 C         138.3307  144.2786  164.6981 C.ar    1  UNL1       -0.0003
     33 C         137.6065  143.0905  164.1377 C.ar    1  UNL1       -0.0000
     34 C         138.1005  141.7046  164.4302 C.ar    1  UNL1       -0.0003
     35 C         139.3186  141.5070  165.2829 C.ar    1  UNL1       -0.0043
@<TRIPOS>BOND
     1    23    24    1
     2    24    25   ar
     3    25    26   ar
     4    26    27   ar
     5    27    20    1
     6    20    21    2
     7    20    22    2
     8    20    18    1
     9    18    17    1
    10    17    16    1
    11    16    15    1
    12    15     1    1
    13     1     2   ar
    14     2     3   ar
    15     3     4   ar
    16     4     5   ar
    17     5     6   ar
    18     5     7    1
    19     7    29    1
    20    29    30    1
    21    30    31   ar
    22    31    32   ar
    23    32    33   ar
    24    33    34   ar
    25    34    35   ar
    26     7     8    1
    27     8    11    1
    28    11    12    1
    29    12    13    1
    30    13    14    1
    31     8     9    1
    32     9    10    1
    33    27    28   ar
    34    28    24   ar
    35     6     1   ar
    36    35    30   ar
    37    14    11    1
    38    10     4    1
    39    18    19    1
@<TRIPOS>MOLECULE
*****
 35 39 0 0 0
SMALL
GASTEIGER

@<TRIPOS>ATOM
      1 C         144.0427  141.9877  162.1942 C.ar    1  UNL1        0.1383
      2 C         145.2689  141.3937  162.8215 C.ar    1  UNL1        0.0366
      3 C         145.1369  140.4549  163.9839 C.ar    1  UNL1       -0.0015
      4 C         143.7787  140.1101  164.5190 C.ar    1  UNL1       -0.0259
      5 C         142.5524  140.7041  163.8917 C.ar    1  UNL1       -0.0218
      6 C         142.6844  141.6428  162.7293 C.ar    1  UNL1        0.0324
      7 C         141.1942  140.3592  164.4268 C.3     1  UNL1        0.0411
      8 C         141.0622  139.4204  165.5892 C.3     1  UNL1        0.0621
      9 C         142.2885  138.8264  166.2166 C.3     1  UNL1        0.0210
     10 C         143.6467  139.1712  165.6815 C.3     1  UNL1        0.0274
     11 N         139.7040  139.0756  166.1243 N.3     1  UNL1       -0.2735
     12 C         138.6064  138.1411  165.7095 C.3     1  UNL1        0.0735
     13 C         137.7832  138.5880  166.8811 C.3     1  UNL1        0.0346
     14 C         138.8807  139.5224  167.2959 C.3     1  UNL1        0.0735
     15 O         144.1746  142.9265  161.0317 O.3     1  UNL1       -0.4739
     16 C         144.9090  142.4935  159.7976 C.3     1  UNL1        0.2241
     17 C         144.1897  141.7284  158.7264 C.3     1  UNL1        0.1387
     18 N         144.1400  140.2302  158.7796 N.3     1  UNL1       -0.1741
     19 H         143.9376  139.9085  157.8331 H       1  UNL1        0.1490
     20 S         143.1635  139.5441  159.6883 S.O2    1  UNL1        0.0785
     21 O         142.0492  140.3658  159.1113 O.2     1  UNL1       -0.1515
     22 O         144.2779  138.7223  160.2652 O.2     1  UNL1       -0.1515
     23 C         138.6577  137.9552  161.9364 C.3     1  UNL1        0.1321
     24 N         140.1160  138.1275  161.6303 N.ar    1  UNL1       -0.3047
     25 C         141.2531  137.4762  162.3603 C.ar    1  UNL1        0.1800
     26 N         142.5331  137.9276  161.7217 N.ar    1  UNL1       -0.2042
     27 C         142.1871  138.8578  160.5970 C.ar    1  UNL1        0.2215
     28 C         140.6933  138.9814  160.5405 C.ar    1  UNL1        0.1171
     29 C         139.9680  140.9532  163.7995 C.3     1  UNL1        0.0320
     30 C         139.4161  142.2501  164.3129 C.ar    1  UNL1       -0.0218
     31 C         138.2622  142.9039  163.6122 C.ar    1  UNL1       -0.0043
     32 C         137.7103  144.2007  164.1255 C.ar    1  UNL1       -0.0003
     33 C         138.3122  144.8438  165.3397 C.ar    1  UNL1       -0.0000
     34 C         139.4662  144.1900  166.0405 C.ar    1  UNL1       -0.0003
     35 C         140.0181  142.8931  165.5270 C.ar    1  UNL1       -0.0043
@<TRIPOS>BOND
     1    23    24    1
     2    24    25   ar
     3    25    26   ar
     4    26    27   ar
     5    27    20    1
     6    20    21    2
     7    20    22    2
     8    20    18    1
     9    18    17    1
    10    17    16    1
    11    16    15    1
    12    15     1    1
    13     1     2   ar
    14     2     3   ar
    15     3     4   ar
    16     4     5   ar
    17     5     6   ar
    18     5     7    1
    19     7    29    1
    20    29    30    1
    21    30    31   ar
    22    31    32   ar
    23    32    33   ar
    24    33    34   ar
    25    34    35   ar
    26     7     8    1
    27     8    11    1
    28    11    12    1
    29    12    13    1
    30    13    14    1
    31     8     9    1
    32     9    10    1
    33    27    28   ar
    34    28    24   ar
    35     6     1   ar
    36    35    30   ar
    37    14    11    1
    38    10     4    1
    39    18    19    1
@<TRIPOS>MOLECULE
*****
 35 39 0 0 0
SMALL
GASTEIGER

@<TRIPOS>ATOM
      1 C         138.6953  143.1959  162.8327 C.ar    1  UNL1        0.1383
      2 C         137.5217  142.2882  162.6123 C.ar    1  UNL1        0.0366
      3 C         137.3144  141.1004  163.5045 C.ar    1  UNL1       -0.0015
      4 C         138.2806  140.8203  164.6171 C.ar    1  UNL1       -0.0259
      5 C         139.4542  141.7281  164.8375 C.ar    1  UNL1       -0.0218
      6 C         139.6615  142.9159  163.9453 C.ar    1  UNL1        0.0324
      7 C         140.4204  141.4480  165.9502 C.3     1  UNL1        0.0411
      8 C         140.2131  140.2602  166.8424 C.3     1  UNL1        0.0621
      9 C         139.0395  139.3524  166.6219 C.3     1  UNL1        0.0210
     10 C         138.0732  139.6324  165.5093 C.3     1  UNL1        0.0274
     11 N         141.1793  139.9802  167.9550 N.3     1  UNL1       -0.2735
     12 C         141.1543  140.1381  169.4465 C.3     1  UNL1        0.0735
     13 C         142.5458  139.5841  169.5285 C.3     1  UNL1        0.0346
     14 C         142.5709  139.4262  168.0371 C.3     1  UNL1        0.0735
     15 O         138.9027  144.3838  161.9405 O.3     1  UNL1       -0.4739
     16 C         139.7390  145.5373  162.4096 C.3     1  UNL1        0.2241
     17 C         141.2355  145.4495  162.3556 C.3     1  UNL1        0.1387
     18 N         141.9135  144.9564  161.1118 N.3     1  UNL1       -0.1741
     19 H         141.3029  145.1934  160.3299 H       1  UNL1        0.1490
     20 S         142.2547  143.5027  160.9696 S.O2    1  UNL1        0.0785
     21 O         141.1596  143.3448  159.9568 O.2     1  UNL1       -0.1515
     22 O         143.3498  143.6607  161.9824 O.2     1  UNL1       -0.1515
     23 C         141.9288  138.2337  161.0808 C.3     1  UNL1        0.1321
     24 N         142.4461  139.6271  160.8785 N.ar    1  UNL1       -0.3047
     25 C         143.7960  139.9967  160.3388 C.ar    1  UNL1        0.1800
     26 N         143.8885  141.4935  160.3072 N.ar    1  UNL1       -0.2042
     27 C         142.5959  142.0489  160.8274 C.ar    1  UNL1        0.2215
     28 C         141.7045  140.8954  161.1805 C.ar    1  UNL1        0.1171
     29 C         141.5940  142.3558  166.1706 C.3     1  UNL1        0.0320
     30 C         142.8787  142.1128  165.4353 C.ar    1  UNL1       -0.0218
     31 C         143.0725  140.8409  164.6642 C.ar    1  UNL1       -0.0043
     32 C         144.3571  140.5979  163.9289 C.ar    1  UNL1       -0.0003
     33 C         145.4480  141.6269  163.9646 C.ar    1  UNL1       -0.0000
     34 C         145.2542  142.8988  164.7357 C.ar    1  UNL1       -0.0003
     35 C         143.9695  143.1418  165.4711 C.ar    1  UNL1       -0.0043
@<TRIPOS>BOND
     1    23    24    1
     2    24    25   ar
     3    25    26   ar
     4    26    27   ar
     5    27    20    1
     6    20    21    2
     7    20    22    2
     8    20    18    1
     9    18    17    1
    10    17    16    1
    11    16    15    1
    12    15     1    1
    13     1     2   ar
    14     2     3   ar
    15     3     4   ar
    16     4     5   ar
    17     5     6   ar
    18     5     7    1
    19     7    29    1
    20    29    30    1
    21    30    31   ar
    22    31    32   ar
    23    32    33   ar
    24    33    34   ar
    25    34    35   ar
    26     7     8    1
    27     8    11    1
    28    11    12    1
    29    12    13    1
    30    13    14    1
    31     8     9    1
    32     9    10    1
    33    27    28   ar
    34    28    24   ar
    35     6     1   ar
    36    35    30   ar
    37    14    11    1
    38    10     4    1
    39    18    19    1
@<TRIPOS>MOLECULE
*****
 35 39 0 0 0
SMALL
GASTEIGER

@<TRIPOS>ATOM
      1 C         141.0088  137.7668  162.5146 C.ar    1  UNL1        0.1383
      2 C         139.5130  137.7021  162.4233 C.ar    1  UNL1        0.0366
      3 C         138.6707  138.1621  163.5761 C.ar    1  UNL1       -0.0015
      4 C         139.3242  138.6868  164.8201 C.ar    1  UNL1       -0.0259
      5 C         140.8199  138.7515  164.9114 C.ar    1  UNL1       -0.0218
      6 C         141.6623  138.2915  163.7587 C.ar    1  UNL1        0.0324
      7 C         141.4734  139.2761  166.1555 C.3     1  UNL1        0.0411
      8 C         140.6311  139.7361  167.3082 C.3     1  UNL1        0.0621
      9 C         139.1352  139.6715  167.2170 C.3     1  UNL1        0.0210
     10 C         138.4818  139.1468  165.9729 C.3     1  UNL1        0.0274
     11 N         141.2846  140.2608  168.5523 N.3     1  UNL1       -0.2735
     12 C         141.8168  139.6439  169.8118 C.3     1  UNL1        0.0735
     13 C         142.2087  141.0028  170.3117 C.3     1  UNL1        0.0346
     14 C         141.6765  141.6196  169.0523 C.3     1  UNL1        0.0735
     15 O         141.8512  137.3068  161.3618 O.3     1  UNL1       -0.4739
     16 C         143.1542  137.9884  161.0662 C.3     1  UNL1        0.2241
     17 C         143.1736  139.2505  160.2557 C.3     1  UNL1        0.1387
     18 N         143.7639  140.5031  160.8322 N.3     1  UNL1       -0.1741
     19 H         144.0575  140.2796  161.7831 H       1  UNL1        0.1490
     20 S         142.9372  141.7519  160.9165 S.O2    1  UNL1        0.0785
     21 O         142.3297  141.2633  162.1979 O.2     1  UNL1       -0.1515
     22 O         143.5447  142.2405  159.6350 O.2     1  UNL1       -0.1515
     23 C         139.3734  145.3191  162.4834 C.3     1  UNL1        0.1321
     24 N         140.4725  144.6404  161.7209 N.ar    1  UNL1       -0.3047
     25 C         141.2047  145.2047  160.5395 C.ar    1  UNL1        0.1800
     26 N         142.2171  144.1913  160.0944 N.ar    1  UNL1       -0.2042
     27 C         142.1106  143.0008  161.0007 C.ar    1  UNL1        0.2215
     28 C         141.0324  143.2783  162.0059 C.ar    1  UNL1        0.1171
     29 C         142.9692  139.3408  166.2468 C.3     1  UNL1        0.0320
     30 C         143.7204  140.4078  165.5069 C.ar    1  UNL1       -0.0218
     31 C         143.3651  141.8513  165.7074 C.ar    1  UNL1       -0.0043
     32 C         144.1162  142.9182  164.9675 C.ar    1  UNL1       -0.0003
     33 C         145.2226  142.5417  164.0271 C.ar    1  UNL1       -0.0000
     34 C         145.5779  141.0983  163.8267 C.ar    1  UNL1       -0.0003
     35 C         144.8267  140.0313  164.5666 C.ar    1  UNL1       -0.0043
@<TRIPOS>BOND
     1    23    24    1
     2    24    25   ar
     3    25    26   ar
     4    26    27   ar
     5    27    20    1
     6    20    21    2
     7    20    22    2
     8    20    18    1
     9    18    17    1
    10    17    16    1
    11    16    15    1
    12    15     1    1
    13     1     2   ar
    14     2     3   ar
    15     3     4   ar
    16     4     5   ar
    17     5     6   ar
    18     5     7    1
    19     7    29    1
    20    29    30    1
    21    30    31   ar
    22    31    32   ar
    23    32    33   ar
    24    33    34   ar
    25    34    35   ar
    26     7     8    1
    27     8    11    1
    28    11    12    1
    29    12    13    1
    30    13    14    1
    31     8     9    1
    32     9    10    1
    33    27    28   ar
    34    28    24   ar
    35     6     1   ar
    36    35    30   ar
    37    14    11    1
    38    10     4    1
    39    18    19    1
@<TRIPOS>MOLECULE
*****
 35 39 0 0 0
SMALL
GASTEIGER

@<TRIPOS>ATOM
      1 C         144.1161  142.9810  164.7474 C.ar    1  UNL1        0.1383
      2 C         145.1023  141.9879  164.2077 C.ar    1  UNL1        0.0366
      3 C         144.7516  140.5301  164.1650 C.ar    1  UNL1       -0.0015
      4 C         143.4148  140.0654  164.6620 C.ar    1  UNL1       -0.0259
      5 C         142.4287  141.0584  165.2017 C.ar    1  UNL1       -0.0218
      6 C         142.7793  142.5162  165.2444 C.ar    1  UNL1        0.0324
      7 C         141.0919  140.5937  165.6987 C.3     1  UNL1        0.0411
      8 C         140.7413  139.1359  165.6560 C.3     1  UNL1        0.0621
      9 C         141.7274  138.1428  165.1163 C.3     1  UNL1        0.0210
     10 C         143.0642  138.6075  164.6193 C.3     1  UNL1        0.0274
     11 N         139.4045  138.6712  166.1530 N.3     1  UNL1       -0.2735
     12 C         138.4773  139.0925  167.2544 C.3     1  UNL1        0.0735
     13 C         137.5140  138.0139  166.8559 C.3     1  UNL1        0.0346
     14 C         138.4411  137.5927  165.7546 C.3     1  UNL1        0.0735
     15 O         144.4667  144.4388  164.7901 O.3     1  UNL1       -0.4739
     16 C         143.9710  145.3612  163.7161 C.3     1  UNL1        0.2241
     17 C         142.5865  145.1937  163.1637 C.3     1  UNL1        0.1387
     18 N         142.3932  144.6846  161.7661 N.3     1  UNL1       -0.1741
     19 H         141.9420  145.4329  161.2399 H       1  UNL1        0.1490
     20 S         141.5901  143.4408  161.5254 S.O2    1  UNL1        0.0785
     21 O         140.3348  144.2605  161.4779 O.2     1  UNL1       -0.1515
     22 O         142.8453  142.6211  161.5728 O.2     1  UNL1       -0.1515
     23 C         139.8666  138.4546  161.7465 C.3     1  UNL1        0.1321
     24 N         139.9948  139.9051  161.3863 N.ar    1  UNL1       -0.3047
     25 C         139.1074  140.6608  160.4420 C.ar    1  UNL1        0.1800
     26 N         139.5970  142.0772  160.3792 N.ar    1  UNL1       -0.2042
     27 C         140.7869  142.1969  161.2846 C.ar    1  UNL1        0.2215
     28 C         141.0328  140.8545  161.9070 C.ar    1  UNL1        0.1171
     29 C         140.1057  141.5867  166.2384 C.3     1  UNL1        0.0320
     30 C         139.2559  142.3875  165.2967 C.ar    1  UNL1       -0.0218
     31 C         139.3050  143.8863  165.3323 C.ar    1  UNL1       -0.0043
     32 C         138.4553  144.6871  164.3907 C.ar    1  UNL1       -0.0003
     33 C         137.5564  143.9891  163.4134 C.ar    1  UNL1       -0.0000
     34 C         137.5074  142.4903  163.3779 C.ar    1  UNL1       -0.0003
     35 C         138.3572  141.6895  164.3195 C.ar    1  UNL1       -0.0043
@<TRIPOS>BOND
     1    23    24    1
     2    24    25   ar
     3    25    26   ar
     4    26    27   ar
     5    27    20    1
     6    20    21    2
     7    20    22    2
     8    20    18    1
     9    18    17    1
    10    17    16    1
    11    16    15    1
    12    15     1    1
    13     1     2   ar
    14     2     3   ar
    15     3     4   ar
    16     4     5   ar
    17     5     6   ar
    18     5     7    1
    19     7    29    1
    20    29    30    1
    21    30    31   ar
    22    31    32   ar
    23    32    33   ar
    24    33    34   ar
    25    34    35   ar
    26     7     8    1
    27     8    11    1
    28    11    12    1
    29    12    13    1
    30    13    14    1
    31     8     9    1
    32     9    10    1
    33    27    28   ar
    34    28    24   ar
    35     6     1   ar
    36    35    30   ar
    37    14    11    1
    38    10     4    1
    39    18    19    1
