@<TRIPOS>MOLECULE
*****
 40 43 0 0 0
SMALL
GASTEIGER

@<TRIPOS>ATOM
      1 N         141.9172  145.1443  162.5207 N.am    1  UNL1       -0.2662
      2 C         141.4825  144.6566  161.1705 C.2     1  UNL1        0.3083
      3 O         140.6406  143.4205  161.0549 O.2     1  UNL1       -0.2521
      4 N         141.8897  145.4048  159.9359 N.am    1  UNL1       -0.2643
      5 H         142.4698  145.9556  162.5966 H       1  UNL1        0.1565
      6 H         142.4423  146.2161  160.0118 H       1  UNL1        0.1566
      7 C         140.6956  142.8995  166.2246 C.ar    1  UNL1        0.0021
      8 C         142.0946  142.7733  165.6982 C.ar    1  UNL1        0.0014
      9 C         142.5018  143.5215  164.4637 C.ar    1  UNL1        0.0170
     10 C         141.5100  144.3961  163.7553 C.ar    1  UNL1        0.0793
     11 C         140.1111  144.5224  164.2817 C.ar    1  UNL1        0.1535
     12 F         139.1193  145.3969  163.5734 F       1  UNL1       -0.2029
     13 C         139.7039  143.7740  165.5164 C.ar    1  UNL1        0.0309
     14 C         139.7887  140.7411  167.3510 C.ar    1  UNL1       -0.0061
     15 C         139.3815  139.9929  168.5856 C.ar    1  UNL1       -0.0029
     16 C         139.4742  140.6548  169.9285 C.ar    1  UNL1       -0.0003
     17 C         139.9740  142.0649  170.0368 C.ar    1  UNL1       -0.0000
     18 C         140.3811  142.8131  168.8021 C.ar    1  UNL1       -0.0003
     19 C         140.2885  142.1512  167.4593 C.ar    1  UNL1       -0.0026
     20 C         139.6960  140.0793  166.0081 C.3     1  UNL1        0.0992
     21 C         140.1830  137.8244  164.8130 C.3     1  UNL1        0.0899
     22 N         140.6511  138.9808  165.6459 N.3     1  UNL1       -0.2665
     23 C         142.0742  139.0388  166.1164 C.3     1  UNL1        0.0899
     24 C         141.4550  144.9170  158.5857 C.ar    1  UNL1        0.1058
     25 C         140.1173  145.3180  158.0383 C.ar    1  UNL1        0.0211
     26 C         139.6826  144.8302  156.6881 C.ar    1  UNL1        0.0222
     27 C         140.5857  143.9415  155.8852 C.ar    1  UNL1        0.1022
     28 N         141.9235  143.5405  156.4326 N.ar    1  UNL1       -0.2088
     29 C         142.3582  144.0283  157.7828 C.ar    1  UNL1        0.2434
     30 O         143.6959  143.6273  158.3302 O.3     1  UNL1       -0.4354
     31 C         143.8040  142.4602  159.2661 C.ar    1  UNL1        0.1432
     32 C         143.8937  142.6909  160.7456 C.ar    1  UNL1        0.0372
     33 C         144.0018  141.5237  161.6815 C.ar    1  UNL1        0.0031
     34 C         144.0203  140.1258  161.1380 C.ar    1  UNL1       -0.0001
     35 C         143.9305  139.8950  159.6586 C.ar    1  UNL1       -0.0013
     36 C         143.8224  141.0621  158.7227 C.ar    1  UNL1        0.0118
     37 C         143.7327  140.8314  157.2432 C.3     1  UNL1        0.0218
     38 C         145.1575  141.2740  157.0878 C.3     1  UNL1        0.0045
     39 C         142.3080  140.3888  157.3987 C.3     1  UNL1        0.0045
     40 C         143.6430  140.6006  155.7638 C.3     1  UNL1        0.0045
@<TRIPOS>BOND
     1    21    22    1
     2    22    23    1
     3    22    20    1
     4    20    14    1
     5    14    15   ar
     6    15    16   ar
     7    16    17   ar
     8    17    18   ar
     9    18    19   ar
    10    19     7    1
    11     7     8   ar
    12     8     9   ar
    13     9    10   ar
    14    10     1    1
    15     1     2   am
    16     2     3    2
    17     2     4   am
    18     4    24    1
    19    24    25   ar
    20    25    26   ar
    21    26    27   ar
    22    27    28   ar
    23    28    29   ar
    24    29    30    1
    25    30    31    1
    26    31    32   ar
    27    32    33   ar
    28    33    34   ar
    29    34    35   ar
    30    35    36   ar
    31    36    37    1
    32    37    38    1
    33    37    39    1
    34    37    40    1
    35    10    11   ar
    36    11    12    1
    37    11    13   ar
    38    19    14   ar
    39    13     7   ar
    40    29    24   ar
    41    36    31   ar
    42     1     5    1
    43     4     6    1
@<TRIPOS>MOLECULE
*****
 40 43 0 0 0
SMALL
GASTEIGER

@<TRIPOS>ATOM
      1 N         141.8285  144.8438  162.2027 N.am    1  UNL1       -0.2662
      2 C         142.0617  143.9735  161.0035 C.2     1  UNL1        0.3083
      3 O         141.9381  142.4834  161.1228 O.2     1  UNL1       -0.2521
      4 N         142.4184  144.5932  159.6850 N.am    1  UNL1       -0.2643
      5 H         141.9095  145.8218  162.1244 H       1  UNL1        0.1565
      6 H         142.4995  145.5713  159.6067 H       1  UNL1        0.1566
      7 C         140.7582  142.9844  166.1584 C.ar    1  UNL1        0.0021
      8 C         142.1471  142.8365  165.6115 C.ar    1  UNL1        0.0014
      9 C         142.5038  143.4563  164.2929 C.ar    1  UNL1        0.0170
     10 C         141.4717  144.2240  163.5213 C.ar    1  UNL1        0.0793
     11 C         140.0828  144.3719  164.0682 C.ar    1  UNL1        0.1535
     12 F         139.0507  145.1396  163.2967 F       1  UNL1       -0.2029
     13 C         139.7261  143.7521  165.3868 C.ar    1  UNL1        0.0309
     14 C         140.0513  140.9080  167.5508 C.ar    1  UNL1       -0.0061
     15 C         139.6946  140.2882  168.8693 C.ar    1  UNL1       -0.0029
     16 C         139.6881  141.1251  170.1141 C.ar    1  UNL1       -0.0003
     17 C         140.0382  142.5818  170.0404 C.ar    1  UNL1       -0.0000
     18 C         140.3949  143.2015  168.7218 C.ar    1  UNL1       -0.0003
     19 C         140.4015  142.3646  167.4770 C.ar    1  UNL1       -0.0026
     20 C         140.0579  140.0710  166.3060 C.3     1  UNL1        0.0992
     21 C         138.1417  140.4485  164.5926 C.3     1  UNL1        0.0899
     22 N         138.7623  139.6344  165.6890 N.3     1  UNL1       -0.2665
     23 C         138.0873  138.3835  166.1683 C.3     1  UNL1        0.0899
     24 C         142.6517  143.7229  158.4858 C.ar    1  UNL1        0.1058
     25 C         143.8463  142.8172  158.4373 C.ar    1  UNL1        0.0211
     26 C         144.0796  141.9469  157.2381 C.ar    1  UNL1        0.0222
     27 C         143.1181  141.9822  156.0873 C.ar    1  UNL1        0.1022
     28 N         141.9233  142.8880  156.1358 N.ar    1  UNL1       -0.2088
     29 C         141.6901  143.7583  157.3350 C.ar    1  UNL1        0.2434
     30 O         140.4954  144.6640  157.3835 O.3     1  UNL1       -0.4354
     31 C         139.2245  144.2665  156.6930 C.ar    1  UNL1        0.1432
     32 C         138.4308  143.0979  157.1972 C.ar    1  UNL1        0.0372
     33 C         137.1599  142.7005  156.5067 C.ar    1  UNL1        0.0031
     34 C         136.6827  143.4717  155.3119 C.ar    1  UNL1       -0.0001
     35 C         137.4764  144.6403  154.8077 C.ar    1  UNL1       -0.0013
     36 C         138.7473  145.0378  155.4982 C.ar    1  UNL1        0.0118
     37 C         139.5410  146.2064  154.9939 C.3     1  UNL1        0.0218
     38 C         140.2410  145.3093  154.0166 C.3     1  UNL1        0.0045
     39 C         138.8409  147.1036  155.9711 C.3     1  UNL1        0.0045
     40 C         140.3347  147.3751  154.4896 C.3     1  UNL1        0.0045
@<TRIPOS>BOND
     1    21    22    1
     2    22    23    1
     3    22    20    1
     4    20    14    1
     5    14    15   ar
     6    15    16   ar
     7    16    17   ar
     8    17    18   ar
     9    18    19   ar
    10    19     7    1
    11     7     8   ar
    12     8     9   ar
    13     9    10   ar
    14    10     1    1
    15     1     2   am
    16     2     3    2
    17     2     4   am
    18     4    24    1
    19    24    25   ar
    20    25    26   ar
    21    26    27   ar
    22    27    28   ar
    23    28    29   ar
    24    29    30    1
    25    30    31    1
    26    31    32   ar
    27    32    33   ar
    28    33    34   ar
    29    34    35   ar
    30    35    36   ar
    31    36    37    1
    32    37    38    1
    33    37    39    1
    34    37    40    1
    35    10    11   ar
    36    11    12    1
    37    11    13   ar
    38    19    14   ar
    39    13     7   ar
    40    29    24   ar
    41    36    31   ar
    42     1     5    1
    43     4     6    1
@<TRIPOS>MOLECULE
*****
 40 43 0 0 0
SMALL
GASTEIGER

@<TRIPOS>ATOM
      1 N         142.0255  145.1260  162.2726 N.am    1  UNL1       -0.2662
      2 C         141.4474  144.7630  160.9370 C.2     1  UNL1        0.3083
      3 O         140.4488  143.6488  160.8298 O.2     1  UNL1       -0.2521
      4 N         141.8679  145.5140  159.7085 N.am    1  UNL1       -0.2643
      5 H         142.6809  145.8573  162.3430 H       1  UNL1        0.1565
      6 H         142.5233  146.2452  159.7789 H       1  UNL1        0.1566
      7 C         140.7640  142.8729  165.9580 C.ar    1  UNL1        0.0021
      8 C         142.1429  142.6838  165.3986 C.ar    1  UNL1        0.0014
      9 C         142.5634  143.4348  164.1701 C.ar    1  UNL1        0.0170
     10 C         141.6050  144.3750  163.5011 C.ar    1  UNL1        0.0793
     11 C         140.2261  144.5642  164.0605 C.ar    1  UNL1        0.1535
     12 F         139.2678  145.5043  163.3915 F       1  UNL1       -0.2029
     13 C         139.8056  143.8131  165.2890 C.ar    1  UNL1        0.0309
     14 C         139.7435  140.7530  167.0600 C.ar    1  UNL1       -0.0061
     15 C         139.3231  140.0020  168.2885 C.ar    1  UNL1       -0.0029
     16 C         139.5027  140.6199  169.6435 C.ar    1  UNL1       -0.0003
     17 C         140.1027  141.9887  169.7700 C.ar    1  UNL1       -0.0000
     18 C         140.5231  142.7397  168.5415 C.ar    1  UNL1       -0.0003
     19 C         140.3435  142.1219  167.1865 C.ar    1  UNL1       -0.0026
     20 C         139.5639  140.1351  165.7050 C.3     1  UNL1        0.0992
     21 C         141.7487  138.7485  165.4732 C.3     1  UNL1        0.0899
     22 N         140.2555  138.8468  165.3706 N.3     1  UNL1       -0.2665
     23 C         139.4538  137.6566  164.9335 C.3     1  UNL1        0.0899
     24 C         141.2898  145.1509  158.3729 C.ar    1  UNL1        0.1058
     25 C         140.1701  145.9640  157.7942 C.ar    1  UNL1        0.0211
     26 C         139.5920  145.6009  156.4585 C.ar    1  UNL1        0.0222
     27 C         140.1336  144.4247  155.7016 C.ar    1  UNL1        0.1022
     28 N         141.2534  143.6115  156.2803 N.ar    1  UNL1       -0.2088
     29 C         141.8315  143.9746  157.6159 C.ar    1  UNL1        0.2434
     30 O         142.9513  143.1614  158.1946 O.3     1  UNL1       -0.4354
     31 C         143.5783  142.0654  157.3850 C.ar    1  UNL1        0.1432
     32 C         144.6014  142.3967  156.3393 C.ar    1  UNL1        0.0372
     33 C         145.2285  141.3006  155.5297 C.ar    1  UNL1        0.0031
     34 C         144.8325  139.8733  155.7659 C.ar    1  UNL1       -0.0001
     35 C         143.8095  139.5419  156.8117 C.ar    1  UNL1       -0.0013
     36 C         143.1824  140.6380  157.6212 C.ar    1  UNL1        0.0118
     37 C         142.1593  140.3066  158.6670 C.3     1  UNL1        0.0218
     38 C         143.2334  140.2947  159.7140 C.3     1  UNL1        0.0045
     39 C         141.0852  140.3186  157.6200 C.3     1  UNL1        0.0045
     40 C         141.1363  139.9753  159.7127 C.3     1  UNL1        0.0045
@<TRIPOS>BOND
     1    21    22    1
     2    22    23    1
     3    22    20    1
     4    20    14    1
     5    14    15   ar
     6    15    16   ar
     7    16    17   ar
     8    17    18   ar
     9    18    19   ar
    10    19     7    1
    11     7     8   ar
    12     8     9   ar
    13     9    10   ar
    14    10     1    1
    15     1     2   am
    16     2     3    2
    17     2     4   am
    18     4    24    1
    19    24    25   ar
    20    25    26   ar
    21    26    27   ar
    22    27    28   ar
    23    28    29   ar
    24    29    30    1
    25    30    31    1
    26    31    32   ar
    27    32    33   ar
    28    33    34   ar
    29    34    35   ar
    30    35    36   ar
    31    36    37    1
    32    37    38    1
    33    37    39    1
    34    37    40    1
    35    10    11   ar
    36    11    12    1
    37    11    13   ar
    38    19    14   ar
    39    13     7   ar
    40    29    24   ar
    41    36    31   ar
    42     1     5    1
    43     4     6    1
@<TRIPOS>MOLECULE
*****
 40 43 0 0 0
SMALL
GASTEIGER

@<TRIPOS>ATOM
      1 N         142.0544  145.2188  161.9996 N.am    1  UNL1       -0.2662
      2 C         141.4507  144.8837  160.6680 C.2     1  UNL1        0.3083
      3 O         140.4342  143.7860  160.5602 O.2     1  UNL1       -0.2521
      4 N         141.8635  145.6464  159.4441 N.am    1  UNL1       -0.2643
      5 H         142.7216  145.9393  162.0703 H       1  UNL1        0.1565
      6 H         142.5307  146.3669  159.5148 H       1  UNL1        0.1566
      7 C         140.8159  142.9307  165.6712 C.ar    1  UNL1        0.0021
      8 C         142.1987  142.7638  165.1145 C.ar    1  UNL1        0.0014
      9 C         142.6116  143.5265  163.8906 C.ar    1  UNL1        0.0170
     10 C         141.6416  144.4561  163.2235 C.ar    1  UNL1        0.0793
     11 C         140.2588  144.6230  163.7803 C.ar    1  UNL1        0.1535
     12 F         139.2888  145.5526  163.1132 F       1  UNL1       -0.2029
     13 C         139.8460  143.8603  165.0042 C.ar    1  UNL1        0.0309
     14 C         139.8000  140.8014  166.7593 C.ar    1  UNL1       -0.0061
     15 C         139.3872  140.0387  167.9832 C.ar    1  UNL1       -0.0029
     16 C         139.5776  140.6427  169.3429 C.ar    1  UNL1       -0.0003
     17 C         140.1807  142.0093  169.4788 C.ar    1  UNL1       -0.0000
     18 C         140.5935  142.7720  168.2549 C.ar    1  UNL1       -0.0003
     19 C         140.4031  142.1680  166.8952 C.ar    1  UNL1       -0.0026
     20 C         139.6096  140.1974  165.3995 C.3     1  UNL1        0.0992
     21 C         140.9912  139.7851  163.2382 C.3     1  UNL1        0.0899
     22 N         140.7646  139.5430  164.7011 N.3     1  UNL1       -0.2665
     23 C         141.6931  138.6465  165.4656 C.3     1  UNL1        0.0899
     24 C         141.2598  145.3113  158.1124 C.ar    1  UNL1        0.1058
     25 C         140.1105  146.1184  157.5856 C.ar    1  UNL1        0.0211
     26 C         139.5068  145.7833  156.2540 C.ar    1  UNL1        0.0222
     27 C         140.0524  144.6412  155.4491 C.ar    1  UNL1        0.1022
     28 N         141.2019  143.8341  155.9759 N.ar    1  UNL1       -0.2088
     29 C         141.8056  144.1692  157.3076 C.ar    1  UNL1        0.2434
     30 O         142.9549  143.3621  157.8344 O.3     1  UNL1       -0.4354
     31 C         142.9162  141.8645  157.7599 C.ar    1  UNL1        0.1432
     32 C         141.9655  141.0947  158.6280 C.ar    1  UNL1        0.0372
     33 C         141.9268  139.5970  158.5534 C.ar    1  UNL1        0.0031
     34 C         142.8389  138.8692  157.6109 C.ar    1  UNL1       -0.0001
     35 C         143.7896  139.6390  156.7429 C.ar    1  UNL1       -0.0013
     36 C         143.8283  141.1366  156.8174 C.ar    1  UNL1        0.0118
     37 C         144.7791  141.9064  155.9494 C.3     1  UNL1        0.0218
     38 C         143.8054  141.8256  154.8112 C.3     1  UNL1        0.0045
     39 C         145.7528  141.9872  157.0875 C.3     1  UNL1        0.0045
     40 C         145.7299  142.6762  155.0814 C.3     1  UNL1        0.0045
@<TRIPOS>BOND
     1    21    22    1
     2    22    23    1
     3    22    20    1
     4    20    14    1
     5    14    15   ar
     6    15    16   ar
     7    16    17   ar
     8    17    18   ar
     9    18    19   ar
    10    19     7    1
    11     7     8   ar
    12     8     9   ar
    13     9    10   ar
    14    10     1    1
    15     1     2   am
    16     2     3    2
    17     2     4   am
    18     4    24    1
    19    24    25   ar
    20    25    26   ar
    21    26    27   ar
    22    27    28   ar
    23    28    29   ar
    24    29    30    1
    25    30    31    1
    26    31    32   ar
    27    32    33   ar
    28    33    34   ar
    29    34    35   ar
    30    35    36   ar
    31    36    37    1
    32    37    38    1
    33    37    39    1
    34    37    40    1
    35    10    11   ar
    36    11    12    1
    37    11    13   ar
    38    19    14   ar
    39    13     7   ar
    40    29    24   ar
    41    36    31   ar
    42     1     5    1
    43     4     6    1
@<TRIPOS>MOLECULE
*****
 40 43 0 0 0
SMALL
GASTEIGER

@<TRIPOS>ATOM
      1 N         142.6136  140.7251  157.9281 N.am    1  UNL1       -0.2662
      2 C         142.6390  140.2571  159.3530 C.2     1  UNL1        0.3083
      3 O         143.9503  140.0543  160.0525 O.2     1  UNL1       -0.2521
      4 N         141.3532  139.9918  160.0784 N.am    1  UNL1       -0.2643
      5 H         141.7530  140.8582  157.4690 H       1  UNL1        0.1565
      6 H         140.4925  140.1249  159.6192 H       1  UNL1        0.1566
      7 C         146.4712  141.5209  155.7520 C.ar    1  UNL1        0.0021
      8 C         145.6859  140.2777  155.4561 C.ar    1  UNL1        0.0014
      9 C         144.4000  140.0124  156.1814 C.ar    1  UNL1        0.0170
     10 C         143.8995  140.9904  157.2028 C.ar    1  UNL1        0.0793
     11 C         144.6848  142.2337  157.4987 C.ar    1  UNL1        0.1535
     12 F         144.1843  143.2116  158.5200 F       1  UNL1       -0.2029
     13 C         145.9707  142.4989  156.7733 C.ar    1  UNL1        0.0309
     14 C         147.7317  142.2523  153.6011 C.ar    1  UNL1       -0.0061
     15 C         149.0176  142.5175  152.8758 C.ar    1  UNL1       -0.0029
     16 C         150.3289  142.3166  153.5759 C.ar    1  UNL1       -0.0003
     17 C         150.3543  141.8505  155.0014 C.ar    1  UNL1       -0.0000
     18 C         149.0684  141.5853  155.7267 C.ar    1  UNL1       -0.0003
     19 C         147.7571  141.7862  155.0266 C.ar    1  UNL1       -0.0026
     20 C         146.4205  142.4531  152.9009 C.3     1  UNL1        0.0992
     21 C         146.2806  145.0355  152.6525 C.3     1  UNL1        0.0899
     22 N         145.6641  143.7362  153.0788 N.3     1  UNL1       -0.2665
     23 C         144.2912  143.7200  153.6829 C.3     1  UNL1        0.0899
     24 C         141.3786  139.5237  161.5032 C.ar    1  UNL1        0.1058
     25 C         141.6707  138.0859  161.8153 C.ar    1  UNL1        0.0211
     26 C         141.6961  137.6179  163.2401 C.ar    1  UNL1        0.0222
     27 C         141.4295  138.5876  164.3530 C.ar    1  UNL1        0.1022
     28 N         141.1374  140.0255  164.0410 N.ar    1  UNL1       -0.2088
     29 C         141.1120  140.4936  162.6161 C.ar    1  UNL1        0.2434
     30 O         140.8200  141.9314  162.3041 O.3     1  UNL1       -0.4354
     31 C         141.8181  142.9934  162.6587 C.ar    1  UNL1        0.1432
     32 C         143.2236  142.9042  162.1424 C.ar    1  UNL1        0.0372
     33 C         144.2217  143.9664  162.4971 C.ar    1  UNL1        0.0031
     34 C         143.8142  145.1176  163.3681 C.ar    1  UNL1       -0.0001
     35 C         142.4087  145.2068  163.8844 C.ar    1  UNL1       -0.0013
     36 C         141.4106  144.1448  163.5297 C.ar    1  UNL1        0.0118
     37 C         140.0051  144.2340  164.0460 C.3     1  UNL1        0.0218
     38 C         139.6109  145.0276  162.8357 C.3     1  UNL1        0.0045
     39 C         140.3993  143.4403  165.2563 C.3     1  UNL1        0.0045
     40 C         138.5996  144.3231  164.5623 C.3     1  UNL1        0.0045
@<TRIPOS>BOND
     1    21    22    1
     2    22    23    1
     3    22    20    1
     4    20    14    1
     5    14    15   ar
     6    15    16   ar
     7    16    17   ar
     8    17    18   ar
     9    18    19   ar
    10    19     7    1
    11     7     8   ar
    12     8     9   ar
    13     9    10   ar
    14    10     1    1
    15     1     2   am
    16     2     3    2
    17     2     4   am
    18     4    24    1
    19    24    25   ar
    20    25    26   ar
    21    26    27   ar
    22    27    28   ar
    23    28    29   ar
    24    29    30    1
    25    30    31    1
    26    31    32   ar
    27    32    33   ar
    28    33    34   ar
    29    34    35   ar
    30    35    36   ar
    31    36    37    1
    32    37    38    1
    33    37    39    1
    34    37    40    1
    35    10    11   ar
    36    11    12    1
    37    11    13   ar
    38    19    14   ar
    39    13     7   ar
    40    29    24   ar
    41    36    31   ar
    42     1     5    1
    43     4     6    1
@<TRIPOS>MOLECULE
*****
 40 43 0 0 0
SMALL
GASTEIGER

@<TRIPOS>ATOM
      1 N         137.4388  139.5562  161.6653 N.am    1  UNL1       -0.2662
      2 C         138.0815  140.1467  160.4454 C.2     1  UNL1        0.3083
      3 O         139.3798  140.8880  160.5660 O.2     1  UNL1       -0.2521
      4 N         137.4258  139.9958  159.1048 N.am    1  UNL1       -0.2643
      5 H         136.5866  139.0696  161.5862 H       1  UNL1        0.1565
      6 H         136.5736  139.5092  159.0256 H       1  UNL1        0.1566
      7 C         139.4059  140.0088  165.6872 C.ar    1  UNL1        0.0021
      8 C         138.6509  141.1581  165.0880 C.ar    1  UNL1        0.0014
      9 C         137.9952  141.0073  163.7474 C.ar    1  UNL1        0.0170
     10 C         138.0945  139.7070  163.0059 C.ar    1  UNL1        0.0793
     11 C         138.8496  138.5578  163.6051 C.ar    1  UNL1        0.1535
     12 F         138.9489  137.2576  162.8638 F       1  UNL1       -0.2029
     13 C         139.5053  138.7087  164.9458 C.ar    1  UNL1        0.0309
     14 C         141.5014  140.5711  167.1166 C.ar    1  UNL1       -0.0061
     15 C         142.1570  140.7220  168.4572 C.ar    1  UNL1       -0.0029
     16 C         141.3730  140.4615  169.7091 C.ar    1  UNL1       -0.0003
     17 C         139.9332  140.0502  169.6204 C.ar    1  UNL1       -0.0000
     18 C         139.2776  139.8993  168.2798 C.ar    1  UNL1       -0.0003
     19 C         140.0617  140.1598  167.0279 C.ar    1  UNL1       -0.0026
     20 C         142.2855  140.8316  165.8646 C.3     1  UNL1        0.0992
     21 C         143.8705  139.9892  163.9864 C.3     1  UNL1        0.0899
     22 N         143.1017  139.7341  165.2488 N.3     1  UNL1       -0.2665
     23 C         143.1490  138.3814  165.8955 C.3     1  UNL1        0.0899
     24 C         138.0684  140.5863  157.8848 C.ar    1  UNL1        0.1058
     25 C         137.4894  141.8176  157.2536 C.ar    1  UNL1        0.0211
     26 C         138.1320  142.4081  156.0337 C.ar    1  UNL1        0.0222
     27 C         139.3537  141.7673  155.4449 C.ar    1  UNL1        0.1022
     28 N         139.9328  140.5359  156.0761 N.ar    1  UNL1       -0.2088
     29 C         139.2902  139.9454  157.2960 C.ar    1  UNL1        0.2434
     30 O         139.8692  138.7140  157.9272 O.3     1  UNL1       -0.4354
     31 C         140.7375  137.7951  157.1201 C.ar    1  UNL1        0.1432
     32 C         140.1229  136.8959  156.0888 C.ar    1  UNL1        0.0372
     33 C         140.9913  135.9769  155.2816 C.ar    1  UNL1        0.0031
     34 C         142.4743  135.9571  155.5059 C.ar    1  UNL1       -0.0001
     35 C         143.0889  136.8563  156.5372 C.ar    1  UNL1       -0.0013
     36 C         142.2206  137.7752  157.3443 C.ar    1  UNL1        0.0118
     37 C         142.8353  138.6744  158.3757 C.3     1  UNL1        0.0218
     38 C         142.5970  137.6314  159.4270 C.3     1  UNL1        0.0045
     39 C         143.0735  139.7174  157.3243 C.3     1  UNL1        0.0045
     40 C         143.4499  139.5736  159.4070 C.3     1  UNL1        0.0045
@<TRIPOS>BOND
     1    21    22    1
     2    22    23    1
     3    22    20    1
     4    20    14    1
     5    14    15   ar
     6    15    16   ar
     7    16    17   ar
     8    17    18   ar
     9    18    19   ar
    10    19     7    1
    11     7     8   ar
    12     8     9   ar
    13     9    10   ar
    14    10     1    1
    15     1     2   am
    16     2     3    2
    17     2     4   am
    18     4    24    1
    19    24    25   ar
    20    25    26   ar
    21    26    27   ar
    22    27    28   ar
    23    28    29   ar
    24    29    30    1
    25    30    31    1
    26    31    32   ar
    27    32    33   ar
    28    33    34   ar
    29    34    35   ar
    30    35    36   ar
    31    36    37    1
    32    37    38    1
    33    37    39    1
    34    37    40    1
    35    10    11   ar
    36    11    12    1
    37    11    13   ar
    38    19    14   ar
    39    13     7   ar
    40    29    24   ar
    41    36    31   ar
    42     1     5    1
    43     4     6    1
@<TRIPOS>MOLECULE
*****
 40 43 0 0 0
SMALL
GASTEIGER

@<TRIPOS>ATOM
      1 N         144.2428  139.5271  162.1269 N.am    1  UNL1       -0.2662
      2 C         143.3706  139.5669  160.9072 C.2     1  UNL1        0.3083
      3 O         141.8817  139.6758  161.0531 O.2     1  UNL1       -0.2521
      4 N         143.9873  139.4980  159.5416 N.am    1  UNL1       -0.2643
      5 H         145.2200  139.4556  162.0311 H       1  UNL1        0.1565
      6 H         144.9645  139.4265  159.4458 H       1  UNL1        0.1566
      7 C         142.3926  139.7340  166.2238 C.ar    1  UNL1        0.0021
      8 C         142.3512  138.4520  165.4460 C.ar    1  UNL1        0.0014
      9 C         142.9678  138.3831  164.0804 C.ar    1  UNL1        0.0170
     10 C         143.6261  139.5960  163.4925 C.ar    1  UNL1        0.0793
     11 C         143.6676  140.8780  164.2703 C.ar    1  UNL1        0.1535
     12 F         144.3257  142.0909  163.6825 F       1  UNL1       -0.2029
     13 C         143.0508  140.9469  165.6360 C.ar    1  UNL1        0.0309
     14 C         140.3509  140.2438  167.7474 C.ar    1  UNL1       -0.0061
     15 C         139.7343  140.3127  169.1131 C.ar    1  UNL1       -0.0029
     16 C         140.5426  139.9407  170.3206 C.ar    1  UNL1       -0.0003
     17 C         141.9676  139.4998  170.1626 C.ar    1  UNL1       -0.0000
     18 C         142.5842  139.4309  168.7970 C.ar    1  UNL1       -0.0003
     19 C         141.7759  139.8029  167.5894 C.ar    1  UNL1       -0.0026
     20 C         139.5426  140.6158  166.5399 C.3     1  UNL1        0.0992
     21 C         137.9788  138.5424  166.4664 C.3     1  UNL1        0.0899
     22 N         138.8312  139.5524  165.7569 N.3     1  UNL1       -0.2665
     23 C         138.9720  139.4991  164.2645 C.3     1  UNL1        0.0899
     24 C         143.1151  139.5379  158.3219 C.ar    1  UNL1        0.1058
     25 C         142.7509  138.2642  157.6183 C.ar    1  UNL1        0.0211
     26 C         141.8787  138.3041  156.3986 C.ar    1  UNL1        0.0222
     27 C         141.3707  139.6176  155.8825 C.ar    1  UNL1        0.1022
     28 N         141.7348  140.8914  156.5861 N.ar    1  UNL1       -0.2088
     29 C         142.6070  140.8515  157.8058 C.ar    1  UNL1        0.2434
     30 O         142.9711  142.1252  158.5094 O.3     1  UNL1       -0.4354
     31 C         142.2911  143.4090  158.1362 C.ar    1  UNL1        0.1432
     32 C         142.6068  144.0722  156.8283 C.ar    1  UNL1        0.0372
     33 C         141.9267  145.3561  156.4551 C.ar    1  UNL1        0.0031
     34 C         140.9310  145.9767  157.3897 C.ar    1  UNL1       -0.0001
     35 C         140.6154  145.3134  158.6975 C.ar    1  UNL1       -0.0013
     36 C         141.2954  144.0296  159.0708 C.ar    1  UNL1        0.0118
     37 C         140.9798  143.3664  160.3786 C.3     1  UNL1        0.0218
     38 C         139.8728  142.5967  159.7212 C.3     1  UNL1        0.0045
     39 C         142.0867  144.1360  161.0361 C.3     1  UNL1        0.0045
     40 C         140.6641  142.7031  161.6865 C.3     1  UNL1        0.0045
@<TRIPOS>BOND
     1    21    22    1
     2    22    23    1
     3    22    20    1
     4    20    14    1
     5    14    15   ar
     6    15    16   ar
     7    16    17   ar
     8    17    18   ar
     9    18    19   ar
    10    19     7    1
    11     7     8   ar
    12     8     9   ar
    13     9    10   ar
    14    10     1    1
    15     1     2   am
    16     2     3    2
    17     2     4   am
    18     4    24    1
    19    24    25   ar
    20    25    26   ar
    21    26    27   ar
    22    27    28   ar
    23    28    29   ar
    24    29    30    1
    25    30    31    1
    26    31    32   ar
    27    32    33   ar
    28    33    34   ar
    29    34    35   ar
    30    35    36   ar
    31    36    37    1
    32    37    38    1
    33    37    39    1
    34    37    40    1
    35    10    11   ar
    36    11    12    1
    37    11    13   ar
    38    19    14   ar
    39    13     7   ar
    40    29    24   ar
    41    36    31   ar
    42     1     5    1
    43     4     6    1
@<TRIPOS>MOLECULE
*****
 40 43 0 0 0
SMALL
GASTEIGER

@<TRIPOS>ATOM
      1 N         144.0074  140.2071  164.3923 N.am    1  UNL1       -0.2662
      2 C         143.2793  141.0035  165.4342 C.2     1  UNL1        0.3083
      3 O         142.5299  142.2426  165.0431 O.2     1  UNL1       -0.2521
      4 N         143.3007  140.5609  166.8672 N.am    1  UNL1       -0.2643
      5 H         144.4993  139.3938  164.6490 H       1  UNL1        0.1565
      6 H         143.7926  139.7477  167.1239 H       1  UNL1        0.1566
      7 C         143.9433  141.5350  160.0932 C.ar    1  UNL1        0.0021
      8 C         144.7472  142.2999  161.1025 C.ar    1  UNL1        0.0014
      9 C         144.7685  141.8573  162.5355 C.ar    1  UNL1        0.0170
     10 C         143.9860  140.6497  162.9593 C.ar    1  UNL1        0.0793
     11 C         143.1822  139.8848  161.9499 C.ar    1  UNL1        0.1535
     12 F         142.3997  138.6773  162.3736 F       1  UNL1       -0.2029
     13 C         143.1608  140.3275  160.5168 C.ar    1  UNL1        0.0309
     14 C         142.7305  142.7110  158.1193 C.ar    1  UNL1       -0.0061
     15 C         142.7092  143.1537  156.6863 C.ar    1  UNL1       -0.0029
     16 C         143.8794  142.8629  155.7940 C.ar    1  UNL1       -0.0003
     17 C         145.0709  142.1296  156.3348 C.ar    1  UNL1       -0.0000
     18 C         145.0922  141.6870  157.7678 C.ar    1  UNL1       -0.0003
     19 C         143.9220  141.9777  158.6601 C.ar    1  UNL1       -0.0026
     20 C         141.5603  143.0017  159.0115 C.3     1  UNL1        0.0992
     21 C         141.7683  144.4290  161.1725 C.3     1  UNL1        0.0899
     22 N         141.4592  144.3262  159.7083 N.3     1  UNL1       -0.2665
     23 C         141.0489  145.5480  158.9408 C.3     1  UNL1        0.0899
     24 C         142.5726  141.3574  167.9091 C.ar    1  UNL1        0.1058
     25 C         143.3395  142.2320  168.8561 C.ar    1  UNL1        0.0211
     26 C         142.6114  143.0285  169.8981 C.ar    1  UNL1        0.0222
     27 C         141.1165  142.9503  169.9930 C.ar    1  UNL1        0.1022
     28 N         140.3496  142.0756  169.0459 N.ar    1  UNL1       -0.2088
     29 C         141.0776  141.2792  168.0040 C.ar    1  UNL1        0.2434
     30 O         140.3108  140.4045  167.0570 O.3     1  UNL1       -0.4354
     31 C         139.4500  141.0225  165.9954 C.ar    1  UNL1        0.1432
     32 C         139.4345  142.5116  165.8151 C.ar    1  UNL1        0.0372
     33 C         138.5737  143.1296  164.7534 C.ar    1  UNL1        0.0031
     34 C         137.7283  142.2586  163.8721 C.ar    1  UNL1       -0.0001
     35 C         137.7437  140.7695  164.0525 C.ar    1  UNL1       -0.0013
     36 C         138.6046  140.1515  165.1141 C.ar    1  UNL1        0.0118
     37 C         138.6200  138.6625  165.2944 C.3     1  UNL1        0.0218
     38 C         139.4555  138.5212  164.0567 C.3     1  UNL1        0.0045
     39 C         137.7845  138.8037  166.5321 C.3     1  UNL1        0.0045
     40 C         138.6355  137.1734  165.4747 C.3     1  UNL1        0.0045
@<TRIPOS>BOND
     1    21    22    1
     2    22    23    1
     3    22    20    1
     4    20    14    1
     5    14    15   ar
     6    15    16   ar
     7    16    17   ar
     8    17    18   ar
     9    18    19   ar
    10    19     7    1
    11     7     8   ar
    12     8     9   ar
    13     9    10   ar
    14    10     1    1
    15     1     2   am
    16     2     3    2
    17     2     4   am
    18     4    24    1
    19    24    25   ar
    20    25    26   ar
    21    26    27   ar
    22    27    28   ar
    23    28    29   ar
    24    29    30    1
    25    30    31    1
    26    31    32   ar
    27    32    33   ar
    28    33    34   ar
    29    34    35   ar
    30    35    36   ar
    31    36    37    1
    32    37    38    1
    33    37    39    1
    34    37    40    1
    35    10    11   ar
    36    11    12    1
    37    11    13   ar
    38    19    14   ar
    39    13     7   ar
    40    29    24   ar
    41    36    31   ar
    42     1     5    1
    43     4     6    1
@<TRIPOS>MOLECULE
*****
 40 43 0 0 0
SMALL
GASTEIGER

@<TRIPOS>ATOM
      1 N         141.6155  140.2276  161.0462 N.am    1  UNL1       -0.2662
      2 C         142.1706  140.1311  162.4363 C.2     1  UNL1        0.3083
      3 O         143.5900  140.5338  162.7068 O.2     1  UNL1       -0.2521
      4 N         141.3064  139.6318  163.5560 N.am    1  UNL1       -0.2643
      5 H         140.6840  139.9632  160.8686 H       1  UNL1        0.1565
      6 H         140.3748  139.3674  163.3785 H       1  UNL1        0.1566
      7 C         144.2084  141.7254  157.6870 C.ar    1  UNL1        0.0021
      8 C         143.8762  140.2659  157.7846 C.ar    1  UNL1        0.0014
      9 C         143.0119  139.7666  158.9042 C.ar    1  UNL1        0.0170
     10 C         142.4798  140.7268  159.9265 C.ar    1  UNL1        0.0793
     11 C         142.8120  142.1863  159.8290 C.ar    1  UNL1        0.1535
     12 F         142.2800  143.1466  160.8511 F       1  UNL1       -0.2029
     13 C         143.6763  142.6856  158.7092 C.ar    1  UNL1        0.0309
     14 C         144.4561  142.5902  155.2497 C.ar    1  UNL1       -0.0061
     15 C         145.3204  143.0894  154.1300 C.ar    1  UNL1       -0.0029
     16 C         146.8013  143.2231  154.3279 C.ar    1  UNL1       -0.0003
     17 C         147.4179  142.8575  155.6456 C.ar    1  UNL1       -0.0000
     18 C         146.5536  142.3583  156.7652 C.ar    1  UNL1       -0.0003
     19 C         145.0727  142.2246  156.5673 C.ar    1  UNL1       -0.0026
     20 C         142.9753  142.4565  155.0517 C.3     1  UNL1        0.0992
     21 C         140.9680  143.7448  154.0215 C.3     1  UNL1        0.0899
     22 N         142.1134  143.6825  154.9881 N.3     1  UNL1       -0.2665
     23 C         142.3970  144.8463  155.8911 C.3     1  UNL1        0.0899
     24 C         141.8614  139.5353  164.9462 C.ar    1  UNL1        0.1058
     25 C         142.6506  138.3275  165.3565 C.ar    1  UNL1        0.0211
     26 C         143.2057  138.2310  166.7467 C.ar    1  UNL1        0.0222
     27 C         142.9716  139.3423  167.7265 C.ar    1  UNL1        0.1022
     28 N         142.1824  140.5502  167.3162 N.ar    1  UNL1       -0.2088
     29 C         141.6273  140.6467  165.9261 C.ar    1  UNL1        0.2434
     30 O         140.8382  141.8545  165.5157 O.3     1  UNL1       -0.4354
     31 C         141.5266  143.0104  164.8526 C.ar    1  UNL1        0.1432
     32 C         143.0134  143.1678  164.9740 C.ar    1  UNL1        0.0372
     33 C         143.7019  144.3238  164.3108 C.ar    1  UNL1        0.0031
     34 C         142.9036  145.3223  163.5262 C.ar    1  UNL1       -0.0001
     35 C         141.4168  145.1649  163.4048 C.ar    1  UNL1       -0.0013
     36 C         140.7283  144.0090  164.0679 C.ar    1  UNL1        0.0118
     37 C         139.2416  143.8516  163.9465 C.3     1  UNL1        0.0218
     38 C         139.4327  142.9711  162.7473 C.3     1  UNL1        0.0045
     39 C         139.0504  144.7321  165.1458 C.3     1  UNL1        0.0045
     40 C         137.7548  143.6942  163.8251 C.3     1  UNL1        0.0045
@<TRIPOS>BOND
     1    21    22    1
     2    22    23    1
     3    22    20    1
     4    20    14    1
     5    14    15   ar
     6    15    16   ar
     7    16    17   ar
     8    17    18   ar
     9    18    19   ar
    10    19     7    1
    11     7     8   ar
    12     8     9   ar
    13     9    10   ar
    14    10     1    1
    15     1     2   am
    16     2     3    2
    17     2     4   am
    18     4    24    1
    19    24    25   ar
    20    25    26   ar
    21    26    27   ar
    22    27    28   ar
    23    28    29   ar
    24    29    30    1
    25    30    31    1
    26    31    32   ar
    27    32    33   ar
    28    33    34   ar
    29    34    35   ar
    30    35    36   ar
    31    36    37    1
    32    37    38    1
    33    37    39    1
    34    37    40    1
    35    10    11   ar
    36    11    12    1
    37    11    13   ar
    38    19    14   ar
    39    13     7   ar
    40    29    24   ar
    41    36    31   ar
    42     1     5    1
    43     4     6    1
