@<TRIPOS>MOLECULE
*****
 27 29 0 0 0
SMALL
GASTEIGER

@<TRIPOS>ATOM
      1 C         140.7320  142.9813  167.2395 C.ar    1  UNL1       -0.0186
      2 C         141.9719  142.6764  166.4523 C.ar    1  UNL1       -0.0042
      3 C         142.0631  143.0804  165.0106 C.ar    1  UNL1       -0.0003
      4 C         140.9145  143.7893  164.3563 C.ar    1  UNL1       -0.0000
      5 C         139.6747  144.0943  165.1435 C.ar    1  UNL1       -0.0003
      6 C         139.5835  143.6902  166.5852 C.ar    1  UNL1       -0.0042
      7 C         141.0059  144.1934  162.9145 C.ar    1  UNL1        0.0000
      8 C         141.9832  143.5102  162.0047 C.ar    1  UNL1        0.0007
      9 C         142.0746  143.9143  160.5629 C.ar    1  UNL1        0.0103
     10 C         141.1884  145.0015  160.0312 C.ar    1  UNL1        0.0684
     11 C         140.2110  145.6847  160.9412 C.ar    1  UNL1        0.0103
     12 C         140.1197  145.2806  162.3828 C.ar    1  UNL1        0.0007
     13 C         141.2797  145.4055  158.5895 C.1     1  UNL1        0.1004
     14 N         141.3710  145.8096  157.1479 N.1     1  UNL1       -0.1908
     15 C         140.6255  141.1712  169.2036 C.3     1  UNL1        0.1111
     16 C         140.5240  141.2333  170.6989 C.3     1  UNL1        0.1598
     17 O         140.4765  142.6778  171.1007 O.3     1  UNL1       -0.3519
     18 C         140.5486  143.5083  169.8537 C.3     1  UNL1        0.1480
     19 C         140.6407  142.5772  168.6813 C.3     1  UNL1        0.0704
     20 N         140.6989  139.9223  168.3761 N.3     1  UNL1       -0.1819
     21 H         141.5308  140.0049  167.7916 H       1  UNL1        0.1485
     22 S         139.5642  139.5583  167.4652 S.O2    1  UNL1        0.0391
     23 O         140.4955  139.5964  166.2899 O.2     1  UNL1       -0.1576
     24 O         138.6329  139.5202  168.6404 O.2     1  UNL1       -0.1576
     25 C         138.2105  139.9629  165.2848 C.3     1  UNL1        0.0270
     26 C         138.4295  139.1943  166.5542 C.3     1  UNL1        0.1457
     27 C         137.5137  138.0616  166.9125 C.3     1  UNL1        0.0270
@<TRIPOS>BOND
     1    25    26    1
     2    26    27    1
     3    26    22    1
     4    22    23    2
     5    22    24    2
     6    22    20    1
     7    15    20    1
     8    15    16    1
     9    16    17    1
    10    17    18    1
    11    18    19    1
    12    19     1    1
    13     1     2   ar
    14     2     3   ar
    15     3     4   ar
    16     4     7    1
    17     7     8   ar
    18     8     9   ar
    19     9    10   ar
    20    10    13    1
    21    13    14    3
    22    10    11   ar
    23    11    12   ar
    24     4     5   ar
    25     5     6   ar
    26    19    15    1
    27     6     1   ar
    28    12     7   ar
    29    20    21    1
@<TRIPOS>MOLECULE
*****
 27 29 0 0 0
SMALL
GASTEIGER

@<TRIPOS>ATOM
      1 C         139.2138  140.4939  161.8824 C.ar    1  UNL1       -0.0186
      2 C         138.0234  140.6171  162.7866 C.ar    1  UNL1       -0.0042
      3 C         138.2180  140.8591  164.2540 C.ar    1  UNL1       -0.0003
      4 C         139.6032  140.9779  164.8173 C.ar    1  UNL1       -0.0000
      5 C         140.7936  140.8548  163.9131 C.ar    1  UNL1       -0.0003
      6 C         140.5989  140.6127  162.4457 C.ar    1  UNL1       -0.0042
      7 C         139.7978  141.2200  166.2848 C.ar    1  UNL1        0.0000
      8 C         140.3426  142.5333  166.7626 C.ar    1  UNL1        0.0007
      9 C         140.5372  142.7754  168.2301 C.ar    1  UNL1        0.0103
     10 C         140.1871  141.7040  169.2199 C.ar    1  UNL1        0.0684
     11 C         139.6423  140.3906  168.7420 C.ar    1  UNL1        0.0103
     12 C         139.4477  140.1486  167.2746 C.ar    1  UNL1        0.0007
     13 C         140.3817  141.9459  170.6873 C.1     1  UNL1        0.1004
     14 N         140.5763  142.1879  172.1548 N.1     1  UNL1       -0.1908
     15 C         138.6680  141.2886  159.3892 C.3     1  UNL1        0.1111
     16 C         138.5734  140.6080  158.0558 C.3     1  UNL1        0.1598
     17 O         138.8660  139.1507  158.2574 O.3     1  UNL1       -0.3519
     18 C         139.1415  138.9306  159.7153 C.3     1  UNL1        0.1480
     19 C         139.0192  140.2519  160.4148 C.3     1  UNL1        0.0704
     20 N         138.4499  142.7493  159.6509 N.3     1  UNL1       -0.1819
     21 H         138.5318  143.2249  158.7523 H       1  UNL1        0.1485
     22 S         139.3409  143.4807  160.6107 S.O2    1  UNL1        0.0391
     23 O         140.5179  143.2168  159.7189 O.2     1  UNL1       -0.1576
     24 O         138.1641  143.7445  161.5024 O.2     1  UNL1       -0.1576
     25 C         141.6384  144.5537  161.1763 C.3     1  UNL1        0.0270
     26 C         140.2321  144.2120  161.5704 C.3     1  UNL1        0.1457
     27 C         139.7169  144.6016  162.9242 C.3     1  UNL1        0.0270
@<TRIPOS>BOND
     1    25    26    1
     2    26    27    1
     3    26    22    1
     4    22    23    2
     5    22    24    2
     6    22    20    1
     7    15    20    1
     8    15    16    1
     9    16    17    1
    10    17    18    1
    11    18    19    1
    12    19     1    1
    13     1     2   ar
    14     2     3   ar
    15     3     4   ar
    16     4     7    1
    17     7     8   ar
    18     8     9   ar
    19     9    10   ar
    20    10    13    1
    21    13    14    3
    22    10    11   ar
    23    11    12   ar
    24     4     5   ar
    25     5     6   ar
    26    19    15    1
    27     6     1   ar
    28    12     7   ar
    29    20    21    1
@<TRIPOS>MOLECULE
*****
 27 29 0 0 0
SMALL
GASTEIGER

@<TRIPOS>ATOM
      1 C         138.9691  141.6537  161.6538 C.ar    1  UNL1       -0.0186
      2 C         137.8177  141.7033  162.6138 C.ar    1  UNL1       -0.0042
      3 C         138.0740  141.7352  164.0914 C.ar    1  UNL1       -0.0003
      4 C         139.4818  141.7176  164.6089 C.ar    1  UNL1       -0.0000
      5 C         140.6332  141.6680  163.6489 C.ar    1  UNL1       -0.0003
      6 C         140.3769  141.6360  162.1714 C.ar    1  UNL1       -0.0042
      7 C         139.7380  141.7495  166.0866 C.ar    1  UNL1        0.0000
      8 C         140.2037  143.0169  166.7398 C.ar    1  UNL1        0.0007
      9 C         140.4600  143.0489  168.2175 C.ar    1  UNL1        0.0103
     10 C         140.2506  141.8133  169.0418 C.ar    1  UNL1        0.0684
     11 C         139.7848  140.5459  168.3885 C.ar    1  UNL1        0.0103
     12 C         139.5286  140.5140  166.9110 C.ar    1  UNL1        0.0007
     13 C         140.5068  141.8452  170.5194 C.1     1  UNL1        0.1004
     14 N         140.7630  141.8771  171.9970 N.1     1  UNL1       -0.1908
     15 C         138.3116  140.4177  159.3767 C.3     1  UNL1        0.1111
     16 C         138.1636  140.8401  157.9451 C.3     1  UNL1        0.1598
     17 O         138.4734  142.3053  157.8597 O.3     1  UNL1       -0.3519
     18 C         138.8128  142.7884  159.2386 C.3     1  UNL1        0.1480
     19 C         138.7129  141.6218  160.1762 C.3     1  UNL1        0.0704
     20 N         138.0962  139.0341  159.9145 N.3     1  UNL1       -0.1819
     21 H         137.1349  138.9963  160.2536 H       1  UNL1        0.1485
     22 S         138.9662  138.5154  161.0207 S.O2    1  UNL1        0.0391
     23 O         140.1692  138.6408  160.1334 O.2     1  UNL1       -0.1576
     24 O         137.7634  138.3899  161.9080 O.2     1  UNL1       -0.1576
     25 C         139.2370  137.6717  163.4630 C.3     1  UNL1        0.0270
     26 C         139.8364  137.9967  162.1270 C.3     1  UNL1        0.1457
     27 C         141.3060  137.8029  161.8971 C.3     1  UNL1        0.0270
@<TRIPOS>BOND
     1    25    26    1
     2    26    27    1
     3    26    22    1
     4    22    23    2
     5    22    24    2
     6    22    20    1
     7    15    20    1
     8    15    16    1
     9    16    17    1
    10    17    18    1
    11    18    19    1
    12    19     1    1
    13     1     2   ar
    14     2     3   ar
    15     3     4   ar
    16     4     7    1
    17     7     8   ar
    18     8     9   ar
    19     9    10   ar
    20    10    13    1
    21    13    14    3
    22    10    11   ar
    23    11    12   ar
    24     4     5   ar
    25     5     6   ar
    26    19    15    1
    27     6     1   ar
    28    12     7   ar
    29    20    21    1
@<TRIPOS>MOLECULE
*****
 27 29 0 0 0
SMALL
GASTEIGER

@<TRIPOS>ATOM
      1 C         139.1166  140.7302  161.7995 C.ar    1  UNL1       -0.0186
      2 C         140.5081  140.7596  162.3588 C.ar    1  UNL1       -0.0042
      3 C         140.7205  140.9470  163.8318 C.ar    1  UNL1       -0.0003
      4 C         139.5414  141.1051  164.7454 C.ar    1  UNL1       -0.0000
      5 C         138.1499  141.0757  164.1861 C.ar    1  UNL1       -0.0003
      6 C         137.9375  140.8882  162.7131 C.ar    1  UNL1       -0.0042
      7 C         139.7538  141.2925  166.2185 C.ar    1  UNL1        0.0000
      8 C         139.4022  140.1903  167.1732 C.ar    1  UNL1        0.0007
      9 C         139.6147  140.3777  168.6463 C.ar    1  UNL1        0.0103
     10 C         140.1786  141.6674  169.1645 C.ar    1  UNL1        0.0684
     11 C         140.5302  142.7697  168.2097 C.ar    1  UNL1        0.0103
     12 C         140.3178  142.5822  166.7368 C.ar    1  UNL1        0.0007
     13 C         140.3911  141.8549  170.6375 C.1     1  UNL1        0.1004
     14 N         140.6035  142.0424  172.1105 N.1     1  UNL1       -0.1908
     15 C         138.7169  141.6358  159.3165 C.3     1  UNL1        0.1111
     16 C         138.5387  140.9979  157.9707 C.3     1  UNL1        0.1598
     17 O         138.6159  139.5105  158.1488 O.3     1  UNL1       -0.3519
     18 C         138.8418  139.2292  159.6047 C.3     1  UNL1        0.1480
     19 C         138.9042  140.5427  160.3264 C.3     1  UNL1        0.0704
     20 N         138.7090  143.1083  159.6022 N.3     1  UNL1       -0.1819
     21 H         138.7506  143.5834  158.7005 H       1  UNL1        0.1485
     22 S         139.7818  143.7118  160.4594 S.O2    1  UNL1        0.0391
     23 O         138.7399  144.1892  161.4272 O.2     1  UNL1       -0.1576
     24 O         140.8237  143.2345  159.4917 O.2     1  UNL1       -0.1576
     25 C         140.4998  145.3458  162.3474 C.3     1  UNL1        0.0270
     26 C         140.8546  144.3153  161.3167 C.3     1  UNL1        0.1457
     27 C         142.2820  143.8884  161.1433 C.3     1  UNL1        0.0270
@<TRIPOS>BOND
     1    25    26    1
     2    26    27    1
     3    26    22    1
     4    22    23    2
     5    22    24    2
     6    22    20    1
     7    15    20    1
     8    15    16    1
     9    16    17    1
    10    17    18    1
    11    18    19    1
    12    19     1    1
    13     1     2   ar
    14     2     3   ar
    15     3     4   ar
    16     4     7    1
    17     7     8   ar
    18     8     9   ar
    19     9    10   ar
    20    10    13    1
    21    13    14    3
    22    10    11   ar
    23    11    12   ar
    24     4     5   ar
    25     5     6   ar
    26    19    15    1
    27     6     1   ar
    28    12     7   ar
    29    20    21    1
@<TRIPOS>MOLECULE
*****
 27 29 0 0 0
SMALL
GASTEIGER

@<TRIPOS>ATOM
      1 C         141.1922  142.5409  167.2939 C.ar    1  UNL1       -0.0186
      2 C         142.6059  142.1085  167.0404 C.ar    1  UNL1       -0.0042
      3 C         143.1485  142.1006  165.6420 C.ar    1  UNL1       -0.0003
      4 C         142.2773  142.5252  164.4971 C.ar    1  UNL1       -0.0000
      5 C         140.8636  142.9577  164.7506 C.ar    1  UNL1       -0.0003
      6 C         140.3210  142.9655  166.1490 C.ar    1  UNL1       -0.0042
      7 C         142.8199  142.5173  163.0987 C.ar    1  UNL1        0.0000
      8 C         141.9261  142.1563  161.9494 C.ar    1  UNL1        0.0007
      9 C         142.4687  142.1485  160.5510 C.ar    1  UNL1        0.0103
     10 C         143.9051  142.5016  160.3019 C.ar    1  UNL1        0.0684
     11 C         144.7989  142.8626  161.4512 C.ar    1  UNL1        0.0103
     12 C         144.2563  142.8705  162.8496 C.ar    1  UNL1        0.0007
     13 C         144.4477  142.4937  158.9035 C.1     1  UNL1        0.1004
     14 N         144.9904  142.4859  157.5052 N.1     1  UNL1       -0.1908
     15 C         140.1916  141.3489  169.4672 C.3     1  UNL1        0.1111
     16 C         139.7287  141.8165  170.8151 C.3     1  UNL1        0.1598
     17 O         139.9006  143.3055  170.8735 O.3     1  UNL1       -0.3519
     18 C         140.4698  143.7581  169.5615 C.3     1  UNL1        0.1480
     19 C         140.6496  142.5488  168.6924 C.3     1  UNL1        0.0704
     20 N         140.1957  139.9303  168.9796 N.3     1  UNL1       -0.1819
     21 H         141.1350  139.7422  168.6291 H       1  UNL1        0.1485
     22 S         139.2393  139.5034  167.9059 S.O2    1  UNL1        0.0391
     23 O         140.3574  139.5136  166.9060 O.2     1  UNL1       -0.1576
     24 O         138.1213  139.4932  168.9057 O.2     1  UNL1       -0.1576
     25 C         137.3678  137.9107  167.0630 C.3     1  UNL1        0.0270
     26 C         138.2830  139.0765  166.8321 C.3     1  UNL1        0.1457
     27 C         138.2419  139.8153  165.5273 C.3     1  UNL1        0.0270
@<TRIPOS>BOND
     1    25    26    1
     2    26    27    1
     3    26    22    1
     4    22    23    2
     5    22    24    2
     6    22    20    1
     7    15    20    1
     8    15    16    1
     9    16    17    1
    10    17    18    1
    11    18    19    1
    12    19     1    1
    13     1     2   ar
    14     2     3   ar
    15     3     4   ar
    16     4     7    1
    17     7     8   ar
    18     8     9   ar
    19     9    10   ar
    20    10    13    1
    21    13    14    3
    22    10    11   ar
    23    11    12   ar
    24     4     5   ar
    25     5     6   ar
    26    19    15    1
    27     6     1   ar
    28    12     7   ar
    29    20    21    1
@<TRIPOS>MOLECULE
*****
 27 29 0 0 0
SMALL
GASTEIGER

@<TRIPOS>ATOM
      1 C         139.3642  140.0092  161.9833 C.ar    1  UNL1       -0.0186
      2 C         140.1604  141.2049  162.4151 C.ar    1  UNL1       -0.0042
      3 C         140.3157  141.5153  163.8743 C.ar    1  UNL1       -0.0003
      4 C         139.6748  140.6301  164.9018 C.ar    1  UNL1       -0.0000
      5 C         138.8787  139.4344  164.4700 C.ar    1  UNL1       -0.0003
      6 C         138.7233  139.1240  163.0108 C.ar    1  UNL1       -0.0042
      7 C         139.8301  140.9405  166.3611 C.ar    1  UNL1        0.0000
      8 C         139.3790  139.9480  167.3913 C.ar    1  UNL1        0.0007
      9 C         139.5343  140.2585  168.8506 C.ar    1  UNL1        0.0103
     10 C         140.1408  141.5615  169.2797 C.ar    1  UNL1        0.0684
     11 C         140.5920  142.5541  168.2495 C.ar    1  UNL1        0.0103
     12 C         140.4367  142.2436  166.7902 C.ar    1  UNL1        0.0007
     13 C         140.2962  141.8720  170.7389 C.1     1  UNL1        0.1004
     14 N         140.4515  142.1826  172.1981 N.1     1  UNL1       -0.1908
     15 C         139.9767  138.6640  159.7561 C.3     1  UNL1        0.1111
     16 C         139.5008  138.6942  158.3339 C.3     1  UNL1        0.1598
     17 O         138.4388  139.7478  158.2228 O.3     1  UNL1       -0.3519
     18 C         138.2584  140.3686  159.5764 C.3     1  UNL1        0.1480
     19 C         139.2089  139.6987  160.5240 C.3     1  UNL1        0.0704
     20 N         141.0347  137.7579  160.3126 N.3     1  UNL1       -0.1819
     21 H         140.5537  136.9438  160.6952 H       1  UNL1        0.1485
     22 S         141.9615  138.2553  161.3820 S.O2    1  UNL1        0.0391
     23 O         142.5395  139.2493  160.4186 O.2     1  UNL1       -0.1576
     24 O         141.3837  137.2613  162.3452 O.2     1  UNL1       -0.1576
     25 C         144.1023  139.5517  162.0794 C.3     1  UNL1        0.0270
     26 C         142.8885  138.7527  162.4512 C.3     1  UNL1        0.1457
     27 C         142.6016  138.4511  163.8923 C.3     1  UNL1        0.0270
@<TRIPOS>BOND
     1    25    26    1
     2    26    27    1
     3    26    22    1
     4    22    23    2
     5    22    24    2
     6    22    20    1
     7    15    20    1
     8    15    16    1
     9    16    17    1
    10    17    18    1
    11    18    19    1
    12    19     1    1
    13     1     2   ar
    14     2     3   ar
    15     3     4   ar
    16     4     7    1
    17     7     8   ar
    18     8     9   ar
    19     9    10   ar
    20    10    13    1
    21    13    14    3
    22    10    11   ar
    23    11    12   ar
    24     4     5   ar
    25     5     6   ar
    26    19    15    1
    27     6     1   ar
    28    12     7   ar
    29    20    21    1
@<TRIPOS>MOLECULE
*****
 27 29 0 0 0
SMALL
GASTEIGER

@<TRIPOS>ATOM
      1 C         140.8381  138.8174  161.6613 C.ar    1  UNL1       -0.0186
      2 C         140.9754  137.6840  162.6342 C.ar    1  UNL1       -0.0042
      3 C         140.9508  137.9548  164.1093 C.ar    1  UNL1       -0.0003
      4 C         140.7889  139.3589  164.6115 C.ar    1  UNL1       -0.0000
      5 C         140.6516  140.4923  163.6386 C.ar    1  UNL1       -0.0003
      6 C         140.6762  140.2215  162.1635 C.ar    1  UNL1       -0.0042
      7 C         140.7642  139.6297  166.0868 C.ar    1  UNL1        0.0000
      8 C         142.0504  139.7403  166.8506 C.ar    1  UNL1        0.0007
      9 C         142.0258  140.0110  168.3258 C.ar    1  UNL1        0.0103
     10 C         140.7149  140.1711  169.0371 C.ar    1  UNL1        0.0684
     11 C         139.4287  140.0604  168.2732 C.ar    1  UNL1        0.0103
     12 C         139.4534  139.7897  166.7981 C.ar    1  UNL1        0.0007
     13 C         140.6902  140.4418  170.5122 C.1     1  UNL1        0.1004
     14 N         140.6655  140.7125  171.9874 N.1     1  UNL1       -0.1908
     15 C         142.0872  138.3020  159.3549 C.3     1  UNL1        0.1111
     16 C         141.6484  138.0772  157.9382 C.3     1  UNL1        0.1598
     17 O         140.1528  138.1829  157.8939 O.3     1  UNL1       -0.3519
     18 C         139.6672  138.4730  159.2831 C.3     1  UNL1        0.1480
     19 C         140.8628  138.5467  160.1861 C.3     1  UNL1        0.0704
     20 N         143.5020  138.2852  159.8529 N.3     1  UNL1       -0.1819
     21 H         143.6770  137.3462  160.2107 H       1  UNL1        0.1485
     22 S         143.9318  139.2436  160.9236 S.O2    1  UNL1        0.0391
     23 O         143.6533  140.3956  160.0042 O.2     1  UNL1       -0.1576
     24 O         144.2102  138.0917  161.8431 O.2     1  UNL1       -0.1576
     25 C         144.6490  141.6332  161.6486 C.3     1  UNL1        0.0270
     26 C         144.3616  140.2021  161.9944 C.3     1  UNL1        0.1457
     27 C         144.5039  139.7297  163.4109 C.3     1  UNL1        0.0270
@<TRIPOS>BOND
     1    25    26    1
     2    26    27    1
     3    26    22    1
     4    22    23    2
     5    22    24    2
     6    22    20    1
     7    15    20    1
     8    15    16    1
     9    16    17    1
    10    17    18    1
    11    18    19    1
    12    19     1    1
    13     1     2   ar
    14     2     3   ar
    15     3     4   ar
    16     4     7    1
    17     7     8   ar
    18     8     9   ar
    19     9    10   ar
    20    10    13    1
    21    13    14    3
    22    10    11   ar
    23    11    12   ar
    24     4     5   ar
    25     5     6   ar
    26    19    15    1
    27     6     1   ar
    28    12     7   ar
    29    20    21    1
@<TRIPOS>MOLECULE
*****
 27 29 0 0 0
SMALL
GASTEIGER

@<TRIPOS>ATOM
      1 C         142.7771  143.0573  161.7225 C.ar    1  UNL1       -0.0186
      2 C         142.0036  141.8784  162.2342 C.ar    1  UNL1       -0.0042
      3 C         141.7340  141.7387  163.7031 C.ar    1  UNL1       -0.0003
      4 C         142.2378  142.7779  164.6603 C.ar    1  UNL1       -0.0000
      5 C         143.0113  143.9568  164.1486 C.ar    1  UNL1       -0.0003
      6 C         143.2810  144.0965  162.6797 C.ar    1  UNL1       -0.0042
      7 C         141.9682  142.6381  166.1293 C.ar    1  UNL1        0.0000
      8 C         143.0911  142.3182  167.0709 C.ar    1  UNL1        0.0007
      9 C         142.8214  142.1785  168.5398 C.ar    1  UNL1        0.0103
     10 C         141.4288  142.3586  169.0672 C.ar    1  UNL1        0.0684
     11 C         140.3058  142.6784  168.1255 C.ar    1  UNL1        0.0103
     12 C         140.5755  142.8182  166.6566 C.ar    1  UNL1        0.0007
     13 C         141.1591  142.2188  170.5360 C.1     1  UNL1        0.1004
     14 N         140.8894  142.0791  172.0049 N.1     1  UNL1       -0.1908
     15 C         142.2627  144.0368  159.2891 C.3     1  UNL1        0.1111
     16 C         142.8792  143.8803  157.9307 C.3     1  UNL1        0.1598
     17 O         144.0444  142.9439  158.0555 O.3     1  UNL1       -0.3519
     18 C         144.1479  142.5216  159.4911 C.3     1  UNL1        0.1480
     19 C         143.0468  143.1971  160.2535 C.3     1  UNL1        0.0704
     20 N         141.0713  144.8842  159.6243 N.3     1  UNL1       -0.1819
     21 H         141.4291  145.7963  159.9078 H       1  UNL1        0.1485
     22 S         140.1140  144.4438  160.6917 S.O2    1  UNL1        0.0391
     23 O         140.5064  145.6238  161.5306 O.2     1  UNL1       -0.1576
     24 O         139.7215  143.2638  159.8530 O.2     1  UNL1       -0.1576
     25 C         139.1102  144.7295  163.0710 C.3     1  UNL1        0.0270
     26 C         139.1566  144.0034  161.7593 C.3     1  UNL1        0.1457
     27 C         138.2458  142.8369  161.5151 C.3     1  UNL1        0.0270
@<TRIPOS>BOND
     1    25    26    1
     2    26    27    1
     3    26    22    1
     4    22    23    2
     5    22    24    2
     6    22    20    1
     7    15    20    1
     8    15    16    1
     9    16    17    1
    10    17    18    1
    11    18    19    1
    12    19     1    1
    13     1     2   ar
    14     2     3   ar
    15     3     4   ar
    16     4     7    1
    17     7     8   ar
    18     8     9   ar
    19     9    10   ar
    20    10    13    1
    21    13    14    3
    22    10    11   ar
    23    11    12   ar
    24     4     5   ar
    25     5     6   ar
    26    19    15    1
    27     6     1   ar
    28    12     7   ar
    29    20    21    1
@<TRIPOS>MOLECULE
*****
 27 29 0 0 0
SMALL
GASTEIGER

@<TRIPOS>ATOM
      1 C         141.4291  142.7208  167.4838 C.ar    1  UNL1       -0.0186
      2 C         140.0795  143.1448  166.9854 C.ar    1  UNL1       -0.0042
      3 C         139.9058  143.5645  165.5559 C.ar    1  UNL1       -0.0003
      4 C         141.0818  143.5601  164.6247 C.ar    1  UNL1       -0.0000
      5 C         142.4315  143.1361  165.1232 C.ar    1  UNL1       -0.0003
      6 C         142.6052  142.7164  166.5527 C.ar    1  UNL1       -0.0042
      7 C         140.9081  143.9798  163.1951 C.ar    1  UNL1        0.0000
      8 C         140.3252  145.3240  162.8736 C.ar    1  UNL1        0.0007
      9 C         140.1514  145.7437  161.4440 C.ar    1  UNL1        0.0103
     10 C         140.5606  144.8192  160.3359 C.ar    1  UNL1        0.0684
     11 C         141.1436  143.4750  160.6575 C.ar    1  UNL1        0.0103
     12 C         141.3173  143.0553  162.0870 C.ar    1  UNL1        0.0007
     13 C         140.3869  145.2389  158.9064 C.1     1  UNL1        0.1004
     14 N         140.2132  145.6585  157.4768 N.1     1  UNL1       -0.1908
     15 C         141.4333  140.9110  169.4511 C.3     1  UNL1        0.1111
     16 C         141.7023  140.9486  170.9263 C.3     1  UNL1        0.1598
     17 O         142.0381  142.3619  171.3004 O.3     1  UNL1       -0.3519
     18 C         141.9767  143.1977  170.0564 C.3     1  UNL1        0.1480
     19 C         141.6029  142.3010  168.9135 C.3     1  UNL1        0.0704
     20 N         141.0603  139.6966  168.6536 N.3     1  UNL1       -0.1819
     21 H         141.0976  138.9021  169.2922 H       1  UNL1        0.1485
     22 S         141.8626  139.3179  167.4441 S.O2    1  UNL1        0.0391
     23 O         143.0744  139.1277  168.3075 O.2     1  UNL1       -0.1576
     24 O         140.6509  139.5081  166.5807 O.2     1  UNL1       -0.1576
     25 C         142.2358  139.4035  164.8744 C.3     1  UNL1        0.0270
     26 C         142.6650  138.9393  166.2347 C.3     1  UNL1        0.1457
     27 C         143.8965  138.0963  166.3855 C.3     1  UNL1        0.0270
@<TRIPOS>BOND
     1    25    26    1
     2    26    27    1
     3    26    22    1
     4    22    23    2
     5    22    24    2
     6    22    20    1
     7    15    20    1
     8    15    16    1
     9    16    17    1
    10    17    18    1
    11    18    19    1
    12    19     1    1
    13     1     2   ar
    14     2     3   ar
    15     3     4   ar
    16     4     7    1
    17     7     8   ar
    18     8     9   ar
    19     9    10   ar
    20    10    13    1
    21    13    14    3
    22    10    11   ar
    23    11    12   ar
    24     4     5   ar
    25     5     6   ar
    26    19    15    1
    27     6     1   ar
    28    12     7   ar
    29    20    21    1
