@<TRIPOS>MOLECULE
*****
 40 45 0 0 0
SMALL
GASTEIGER

@<TRIPOS>ATOM
      1 C         141.4667  142.9798  161.5204 C.3     1  UNL1        0.0667
      2 C         142.2627  142.4555  160.3622 C.3     1  UNL1        0.0186
      3 C         143.0665  143.3983  159.5165 C.3     1  UNL1        0.0229
      4 C         143.8625  142.8740  158.3583 C.3     1  UNL1        0.0934
      5 N         143.8548  141.4070  158.0457 N.am    1  UNL1       -0.2795
      6 C         144.6509  140.8828  156.8875 C.2     1  UNL1        0.2276
      7 O         144.6432  139.4156  156.5750 O.2     1  UNL1       -0.2748
      8 C         143.0511  140.4642  158.8914 C.3     1  UNL1        0.0934
      9 C         142.2551  140.9885  160.0496 C.3     1  UNL1        0.0229
     10 C         145.4546  141.8255  156.0419 C.3     1  UNL1        0.1062
     11 C         146.8993  142.1760  156.2419 C.3     1  UNL1        0.0411
     12 C         147.2925  143.1504  155.1714 C.3     1  UNL1        0.1158
     13 C         146.7927  143.9081  153.9772 C.3     1  UNL1        0.0321
     14 C         145.3480  143.5577  153.7772 C.3     1  UNL1        0.0325
     15 C         144.9549  142.5833  154.8477 C.3     1  UNL1        0.1238
     16 O         146.1566  142.3315  155.7094 O.3     1  UNL1       -0.3582
     17 N         142.2359  141.6378  166.1111 N.pl3   1  UNL1       -0.3039
     18 C         143.4826  142.4429  165.8926 C.3     1  UNL1        0.0923
     19 C         143.9186  143.1750  164.6581 C.3     1  UNL1        0.0387
     20 C         143.2156  143.2829  163.3374 C.3     1  UNL1        0.0739
     21 N         141.9032  142.6854  162.9249 N.3     1  UNL1       -0.2720
     22 C         140.9693  141.8323  163.7314 C.3     1  UNL1        0.0937
     23 C         141.1174  141.3660  165.1493 C.3     1  UNL1        0.1081
     24 C         142.6452  139.6569  167.7416 C.ar    1  UNL1       -0.0044
     25 C         142.4976  139.0424  169.1019 C.ar    1  UNL1        0.0161
     26 C         141.7930  139.7941  170.1921 C.ar    1  UNL1        0.0812
     27 N         141.2360  141.1603  169.9220 N.ar    1  UNL1       -0.2865
     28 C         140.4977  142.1334  170.7926 C.ar    1  UNL1        0.1022
     29 C         140.1890  143.3493  169.9704 C.ar    1  UNL1        0.1196
     30 N         140.7366  143.1278  168.5915 N.ar    1  UNL1       -0.2236
     31 C         141.3837  141.7749  168.5616 C.ar    1  UNL1        0.1609
     32 C         142.0883  141.0232  167.4715 C.ar    1  UNL1        0.0788
     33 C         142.5590  138.0986  165.6646 C.3     1  UNL1        0.0051
     34 C         143.3499  138.9052  166.6514 C.3     1  UNL1        0.0278
     35 C         140.2341  143.7985  161.2740 C.3     1  UNL1        0.1007
     36 C         140.2490  145.2748  161.5387 C.2     1  UNL1        0.2207
     37 N         140.9679  145.8141  162.7397 N.am    1  UNL1       -0.3288
     38 O         139.5452  146.2119  160.6025 O.2     1  UNL1       -0.2753
     39 H         141.4298  145.1991  163.3542 H       1  UNL1        0.1449
     40 H         140.9777  146.7831  162.9136 H       1  UNL1        0.1449
@<TRIPOS>BOND
     1    33    34    1
     2    34    24    1
     3    24    25   ar
     4    25    26   ar
     5    26    27   ar
     6    27    28   ar
     7    28    29   ar
     8    29    30   ar
     9    30    31   ar
    10    31    32   ar
    11    32    17    1
    12    17    18    1
    13    18    19    1
    14    19    20    1
    15    20    21    1
    16    21     1    1
    17     1    35    1
    18    35    36    1
    19    36    37   am
    20    36    38    2
    21     1     2    1
    22     2     3    1
    23     3     4    1
    24     4     5    1
    25     5     6   am
    26     6     7    2
    27    10     6    1
    28    10    11    1
    29    12    11    1
    30    12    13    1
    31    13    14    1
    32    15    14    1
    33    15    16    1
    34     5     8    1
    35     8     9    1
    36    21    22    1
    37    22    23    1
    38    32    24   ar
    39    23    17    1
    40    31    27   ar
    41     9     2    1
    42    15    10    1
    43    16    12    1
    44    37    39    1
    45    37    40    1
@<TRIPOS>MOLECULE
*****
 40 45 0 0 0
SMALL
GASTEIGER

@<TRIPOS>ATOM
      1 C         142.5277  141.4492  161.4310 C.3     1  UNL1        0.0667
      2 C         141.9737  140.6248  160.3071 C.3     1  UNL1        0.0186
      3 C         142.8964  139.8150  159.4453 C.3     1  UNL1        0.0229
      4 C         142.3424  138.9905  158.3213 C.3     1  UNL1        0.0934
      5 N         140.8657  138.9758  158.0591 N.am    1  UNL1       -0.2795
      6 C         140.3117  138.1514  156.9351 C.2     1  UNL1        0.2276
      7 O         138.8348  138.1367  156.6729 O.2     1  UNL1       -0.2748
      8 C         139.9428  139.7857  158.9209 C.3     1  UNL1        0.0934
      9 C         140.4968  140.6101  160.0448 C.3     1  UNL1        0.0229
     10 C         141.2344  137.3415  156.0733 C.3     1  UNL1        0.1062
     11 C         141.8438  137.7835  154.7759 C.3     1  UNL1        0.0411
     12 C         142.6958  136.6628  154.2583 C.3     1  UNL1        0.1158
     13 C         143.1713  135.2688  154.5427 C.3     1  UNL1        0.0321
     14 C         142.5619  134.8268  155.8401 C.3     1  UNL1        0.0325
     15 C         141.7099  135.9476  156.3577 C.3     1  UNL1        0.1238
     16 O         141.7926  137.0823  155.3801 O.3     1  UNL1       -0.3582
     17 N         141.5227  140.5758  166.0888 N.pl3   1  UNL1       -0.3039
     18 C         142.4411  139.4186  165.8285 C.3     1  UNL1        0.0923
     19 C         143.1473  139.0530  164.5566 C.3     1  UNL1        0.0387
     20 C         143.1097  139.7542  163.2311 C.3     1  UNL1        0.0739
     21 N         142.3566  140.9941  162.8500 N.3     1  UNL1       -0.2720
     22 C         141.4550  141.8392  163.7004 C.3     1  UNL1        0.0937
     23 C         141.0839  141.6530  165.1417 C.3     1  UNL1        0.1081
     24 C         139.6315  140.0696  167.7968 C.ar    1  UNL1       -0.0044
     25 C         139.0790  140.1616  169.1882 C.ar    1  UNL1        0.0161
     26 C         139.8651  140.8518  170.2633 C.ar    1  UNL1        0.0812
     27 N         141.2037  141.4499  169.9468 N.ar    1  UNL1       -0.2865
     28 C         142.1997  142.1857  170.7934 C.ar    1  UNL1        0.1022
     29 C         143.3677  142.5485  169.9251 C.ar    1  UNL1        0.1196
     30 N         143.0937  142.0369  168.5419 N.ar    1  UNL1       -0.2236
     31 C         141.7563  141.3579  168.5553 C.ar    1  UNL1        0.1609
     32 C         140.9702  140.6678  167.4803 C.ar    1  UNL1        0.0788
     33 C         137.6653  138.5278  167.0849 C.3     1  UNL1        0.0051
     34 C         138.8454  139.3795  166.7216 C.3     1  UNL1        0.0278
     35 C         143.2527  142.7289  161.1359 C.3     1  UNL1        0.1007
     36 C         144.3862  143.1684  162.0145 C.2     1  UNL1        0.2207
     37 N         145.4466  142.1871  162.4178 N.am    1  UNL1       -0.3288
     38 O         144.4593  144.5893  162.4899 O.2     1  UNL1       -0.2753
     39 H         145.3986  141.2546  162.1058 H       1  UNL1        0.1449
     40 H         146.1905  142.4756  162.9945 H       1  UNL1        0.1449
@<TRIPOS>BOND
     1    33    34    1
     2    34    24    1
     3    24    25   ar
     4    25    26   ar
     5    26    27   ar
     6    27    28   ar
     7    28    29   ar
     8    29    30   ar
     9    30    31   ar
    10    31    32   ar
    11    32    17    1
    12    17    18    1
    13    18    19    1
    14    19    20    1
    15    20    21    1
    16    21     1    1
    17     1    35    1
    18    35    36    1
    19    36    37   am
    20    36    38    2
    21     1     2    1
    22     2     3    1
    23     3     4    1
    24     4     5    1
    25     5     6   am
    26     6     7    2
    27    10     6    1
    28    10    11    1
    29    12    11    1
    30    12    13    1
    31    13    14    1
    32    15    14    1
    33    15    16    1
    34     5     8    1
    35     8     9    1
    36    21    22    1
    37    22    23    1
    38    32    24   ar
    39    23    17    1
    40    31    27   ar
    41     9     2    1
    42    15    10    1
    43    16    12    1
    44    37    39    1
    45    37    40    1
@<TRIPOS>MOLECULE
*****
 40 45 0 0 0
SMALL
GASTEIGER

@<TRIPOS>ATOM
      1 C         141.3908  143.2096  161.4303 C.3     1  UNL1        0.0667
      2 C         141.1738  142.1237  160.4185 C.3     1  UNL1        0.0186
      3 C         142.3441  141.3557  159.8797 C.3     1  UNL1        0.0229
      4 C         142.1271  140.2698  158.8679 C.3     1  UNL1        0.0934
      5 N         140.7396  139.9519  158.3949 N.am    1  UNL1       -0.2795
      6 C         140.5225  138.8660  157.3831 C.2     1  UNL1        0.2276
      7 O         139.1350  138.5482  156.9101 O.2     1  UNL1       -0.2748
      8 C         139.5691  140.7200  158.9336 C.3     1  UNL1        0.0934
      9 C         139.7862  141.8058  159.9454 C.3     1  UNL1        0.0229
     10 C         141.6929  138.0980  156.8444 C.3     1  UNL1        0.1062
     11 C         142.1810  136.7702  157.3431 C.3     1  UNL1        0.0411
     12 C         143.3704  136.3744  156.5193 C.3     1  UNL1        0.1158
     13 C         144.2582  136.7992  155.3873 C.3     1  UNL1        0.0321
     14 C         143.7701  138.1270  154.8886 C.3     1  UNL1        0.0325
     15 C         142.5807  138.5228  155.7124 C.3     1  UNL1        0.1238
     16 O         142.3336  137.4397  156.7202 O.3     1  UNL1       -0.3582
     17 N         142.1960  141.7319  165.9729 N.pl3   1  UNL1       -0.3039
     18 C         143.4793  142.4724  165.7387 C.3     1  UNL1        0.0923
     19 C         143.9249  143.2055  164.5083 C.3     1  UNL1        0.0387
     20 C         143.1972  143.3791  163.2081 C.3     1  UNL1        0.0739
     21 N         141.8443  142.8626  162.8173 N.3     1  UNL1       -0.2720
     22 C         140.8849  142.0447  163.6302 C.3     1  UNL1        0.0937
     23 C         141.0414  141.5416  165.0345 C.3     1  UNL1        0.1081
     24 C         142.5753  139.7146  167.5656 C.ar    1  UNL1       -0.0044
     25 C         142.4271  139.0806  168.9169 C.ar    1  UNL1        0.0161
     26 C         141.7513  139.8299  170.0269 C.ar    1  UNL1        0.0812
     27 N         141.2239  141.2132  169.7855 N.ar    1  UNL1       -0.2865
     28 C         140.5174  142.1882  170.6801 C.ar    1  UNL1        0.1022
     29 C         140.2290  143.4248  169.8816 C.ar    1  UNL1        0.1196
     30 N         140.7572  143.2141  168.4936 N.ar    1  UNL1       -0.2236
     31 C         141.3721  141.8472  168.4342 C.ar    1  UNL1        0.1609
     32 C         142.0478  141.0979  167.3243 C.ar    1  UNL1        0.0788
     33 C         144.0458  137.7302  166.7597 C.3     1  UNL1        0.0051
     34 C         143.2510  138.9654  166.4556 C.3     1  UNL1        0.0278
     35 C         141.1544  144.6426  161.0549 C.3     1  UNL1        0.1007
     36 C         140.4101  145.5496  161.9894 C.2     1  UNL1        0.2207
     37 N         141.0791  146.0588  163.2317 N.am    1  UNL1       -0.3288
     38 O         138.9970  145.9476  161.6816 O.2     1  UNL1       -0.2753
     39 H         142.0066  145.7976  163.4337 H       1  UNL1        0.1449
     40 H         140.5907  146.6541  163.8451 H       1  UNL1        0.1449
@<TRIPOS>BOND
     1    33    34    1
     2    34    24    1
     3    24    25   ar
     4    25    26   ar
     5    26    27   ar
     6    27    28   ar
     7    28    29   ar
     8    29    30   ar
     9    30    31   ar
    10    31    32   ar
    11    32    17    1
    12    17    18    1
    13    18    19    1
    14    19    20    1
    15    20    21    1
    16    21     1    1
    17     1    35    1
    18    35    36    1
    19    36    37   am
    20    36    38    2
    21     1     2    1
    22     2     3    1
    23     3     4    1
    24     4     5    1
    25     5     6   am
    26     6     7    2
    27    10     6    1
    28    10    11    1
    29    12    11    1
    30    12    13    1
    31    13    14    1
    32    15    14    1
    33    15    16    1
    34     5     8    1
    35     8     9    1
    36    21    22    1
    37    22    23    1
    38    32    24   ar
    39    23    17    1
    40    31    27   ar
    41     9     2    1
    42    15    10    1
    43    16    12    1
    44    37    39    1
    45    37    40    1
@<TRIPOS>MOLECULE
*****
 40 45 0 0 0
SMALL
GASTEIGER

@<TRIPOS>ATOM
      1 C         142.0398  143.4088  161.4503 C.3     1  UNL1        0.0667
      2 C         142.4832  142.5162  160.3293 C.3     1  UNL1        0.0186
      3 C         141.5484  141.4785  159.7822 C.3     1  UNL1        0.0229
      4 C         141.9918  140.5859  158.6612 C.3     1  UNL1        0.0934
      5 N         143.3701  140.7308  158.0874 N.am    1  UNL1       -0.2795
      6 C         143.8135  139.8382  156.9665 C.2     1  UNL1        0.2276
      7 O         145.1919  139.9832  156.3927 O.2     1  UNL1       -0.2748
      8 C         144.3050  141.7685  158.6346 C.3     1  UNL1        0.0934
      9 C         143.8615  142.6611  159.7555 C.3     1  UNL1        0.0229
     10 C         142.8787  138.8005  156.4193 C.3     1  UNL1        0.1062
     11 C         141.8413  139.0201  155.3584 C.3     1  UNL1        0.0411
     12 C         141.1386  137.7164  155.1203 C.3     1  UNL1        0.1158
     13 C         141.0770  136.2771  155.5381 C.3     1  UNL1        0.0321
     14 C         142.1143  136.0575  156.5991 C.3     1  UNL1        0.0325
     15 C         142.8171  137.3612  156.8371 C.3     1  UNL1        0.1238
     16 O         142.2141  138.3864  155.9232 O.3     1  UNL1       -0.3582
     17 N         142.4237  141.8298  166.0140 N.pl3   1  UNL1       -0.3039
     18 C         143.6750  142.6545  165.9475 C.3     1  UNL1        0.0923
     19 C         144.2077  143.4545  164.7959 C.3     1  UNL1        0.0387
     20 C         143.6208  143.6275  163.4263 C.3     1  UNL1        0.0739
     21 N         142.3563  143.0432  162.8702 N.3     1  UNL1       -0.2720
     22 C         141.3662  142.1415  163.5462 C.3     1  UNL1        0.0937
     23 C         141.3962  141.6016  164.9453 C.3     1  UNL1        0.1081
     24 C         142.6500  139.7398  167.5405 C.ar    1  UNL1       -0.0044
     25 C         142.3923  139.0526  168.8486 C.ar    1  UNL1        0.0161
     26 C         141.6504  139.7682  169.9385 C.ar    1  UNL1        0.0812
     27 N         141.1664  141.1710  169.7201 N.ar    1  UNL1       -0.2865
     28 C         140.4137  142.1219  170.6028 C.ar    1  UNL1        0.1022
     29 C         140.2062  143.3968  169.8402 C.ar    1  UNL1        0.1196
     30 N         140.8307  143.2339  168.4861 N.ar    1  UNL1       -0.2236
     31 C         141.4242  141.8582  168.4119 C.ar    1  UNL1        0.1609
     32 C         142.1660  141.1426  167.3221 C.ar    1  UNL1        0.0788
     33 C         142.6418  138.1859  165.4583 C.3     1  UNL1        0.0051
     34 C         143.3918  139.0242  166.4507 C.3     1  UNL1        0.0278
     35 C         141.2799  144.6671  161.1512 C.3     1  UNL1        0.1007
     36 C         140.4792  145.3341  162.2301 C.2     1  UNL1        0.2207
     37 N         141.1770  145.9994  163.3793 N.am    1  UNL1       -0.3288
     38 O         138.9809  145.3358  162.1599 O.2     1  UNL1       -0.2753
     39 H         142.1605  145.9982  163.4253 H       1  UNL1        0.1449
     40 H         140.6516  146.4372  164.0874 H       1  UNL1        0.1449
@<TRIPOS>BOND
     1    33    34    1
     2    34    24    1
     3    24    25   ar
     4    25    26   ar
     5    26    27   ar
     6    27    28   ar
     7    28    29   ar
     8    29    30   ar
     9    30    31   ar
    10    31    32   ar
    11    32    17    1
    12    17    18    1
    13    18    19    1
    14    19    20    1
    15    20    21    1
    16    21     1    1
    17     1    35    1
    18    35    36    1
    19    36    37   am
    20    36    38    2
    21     1     2    1
    22     2     3    1
    23     3     4    1
    24     4     5    1
    25     5     6   am
    26     6     7    2
    27    10     6    1
    28    10    11    1
    29    12    11    1
    30    12    13    1
    31    13    14    1
    32    15    14    1
    33    15    16    1
    34     5     8    1
    35     8     9    1
    36    21    22    1
    37    22    23    1
    38    32    24   ar
    39    23    17    1
    40    31    27   ar
    41     9     2    1
    42    15    10    1
    43    16    12    1
    44    37    39    1
    45    37    40    1
@<TRIPOS>MOLECULE
*****
 40 45 0 0 0
SMALL
GASTEIGER

@<TRIPOS>ATOM
      1 C         139.7265  139.6742  159.8244 C.3     1  UNL1        0.0667
      2 C         140.6541  139.0663  158.8144 C.3     1  UNL1        0.0186
      3 C         140.1686  137.9680  157.9156 C.3     1  UNL1        0.0229
      4 C         141.0962  137.3602  156.9056 C.3     1  UNL1        0.0934
      5 N         142.5093  137.8507  156.7945 N.am    1  UNL1       -0.2795
      6 C         143.4370  137.2428  155.7845 C.2     1  UNL1        0.2276
      7 O         144.8502  137.7334  155.6734 O.2     1  UNL1       -0.2748
      8 C         142.9949  138.9490  157.6934 C.3     1  UNL1        0.0934
      9 C         142.0673  139.5568  158.7033 C.3     1  UNL1        0.0229
     10 C         142.9515  136.1445  154.8856 C.3     1  UNL1        0.1062
     11 C         143.1015  134.6725  155.1320 C.3     1  UNL1        0.0411
     12 C         142.4735  133.9436  153.9813 C.3     1  UNL1        0.1158
     13 C         141.7527  134.1244  152.6782 C.3     1  UNL1        0.0321
     14 C         141.6028  135.5964  152.4318 C.3     1  UNL1        0.0325
     15 C         142.2308  136.3254  153.5826 C.3     1  UNL1        0.1238
     16 O         142.7689  135.3039  154.5402 O.3     1  UNL1       -0.3582
     17 N         140.2136  139.6420  164.6441 N.pl3   1  UNL1       -0.3039
     18 C         140.7300  138.2649  164.3493 C.3     1  UNL1        0.0923
     19 C         140.8693  137.5829  163.0206 C.3     1  UNL1        0.0387
     20 C         140.5266  138.1096  161.6585 C.3     1  UNL1        0.0739
     21 N         139.9601  139.4482  161.2888 N.3     1  UNL1       -0.2720
     22 C         139.5962  140.5910  162.1898 C.3     1  UNL1        0.0937
     23 C         139.7090  140.6773  163.6830 C.3     1  UNL1        0.1081
     24 C         139.0762  139.5905  166.9794 C.ar    1  UNL1       -0.0044
     25 C         139.0626  139.9844  168.4266 C.ar    1  UNL1        0.0161
     26 C         140.1728  140.8240  168.9859 C.ar    1  UNL1        0.0812
     27 N         141.2966  141.2695  168.0979 N.ar    1  UNL1       -0.2865
     28 C         142.5190  142.0968  168.3646 C.ar    1  UNL1        0.1022
     29 C         143.2881  142.2141  167.0822 C.ar    1  UNL1        0.1196
     30 N         142.5410  141.4593  166.0228 N.ar    1  UNL1       -0.2236
     31 C         141.3102  140.8755  166.6506 C.ar    1  UNL1        0.1609
     32 C         140.2000  140.0360  166.0914 C.ar    1  UNL1        0.0788
     33 C         137.2715  137.7480  167.2928 C.3     1  UNL1        0.0051
     34 C         137.9660  138.7510  166.4201 C.3     1  UNL1        0.0278
     35 C         138.5652  140.5079  159.3699 C.3     1  UNL1        0.1007
     36 C         138.7829  141.9313  158.9496 C.2     1  UNL1        0.2207
     37 N         139.4285  142.2331  157.6297 N.am    1  UNL1       -0.3288
     38 O         138.3549  143.0528  159.8491 O.2     1  UNL1       -0.2753
     39 H         139.7094  141.4970  157.0394 H       1  UNL1        0.1449
     40 H         139.5714  143.1673  157.3538 H       1  UNL1        0.1449
@<TRIPOS>BOND
     1    33    34    1
     2    34    24    1
     3    24    25   ar
     4    25    26   ar
     5    26    27   ar
     6    27    28   ar
     7    28    29   ar
     8    29    30   ar
     9    30    31   ar
    10    31    32   ar
    11    32    17    1
    12    17    18    1
    13    18    19    1
    14    19    20    1
    15    20    21    1
    16    21     1    1
    17     1    35    1
    18    35    36    1
    19    36    37   am
    20    36    38    2
    21     1     2    1
    22     2     3    1
    23     3     4    1
    24     4     5    1
    25     5     6   am
    26     6     7    2
    27    10     6    1
    28    10    11    1
    29    12    11    1
    30    12    13    1
    31    13    14    1
    32    15    14    1
    33    15    16    1
    34     5     8    1
    35     8     9    1
    36    21    22    1
    37    22    23    1
    38    32    24   ar
    39    23    17    1
    40    31    27   ar
    41     9     2    1
    42    15    10    1
    43    16    12    1
    44    37    39    1
    45    37    40    1
@<TRIPOS>MOLECULE
*****
 40 45 0 0 0
SMALL
GASTEIGER

@<TRIPOS>ATOM
      1 C         141.5664  141.5160  160.7436 C.3     1  UNL1        0.0667
      2 C         142.0638  140.6255  159.6439 C.3     1  UNL1        0.0186
      3 C         141.3189  139.3696  159.3008 C.3     1  UNL1        0.0229
      4 C         141.8164  138.4790  158.2011 C.3     1  UNL1        0.0934
      5 N         143.0588  138.8444  157.4443 N.am    1  UNL1       -0.2795
      6 C         143.5563  137.9539  156.3446 C.2     1  UNL1        0.2276
      7 O         144.7988  138.3193  155.5878 O.2     1  UNL1       -0.2748
      8 C         143.8039  140.1004  157.7873 C.3     1  UNL1        0.0934
      9 C         143.3063  140.9908  158.8870 C.3     1  UNL1        0.0229
     10 C         142.8113  136.6980  156.0016 C.3     1  UNL1        0.1062
     11 C         141.6239  136.5982  155.0905 C.3     1  UNL1        0.0411
     12 C         141.2016  135.1599  155.0352 C.3     1  UNL1        0.1158
     13 C         141.5132  133.7833  155.5430 C.3     1  UNL1        0.0321
     14 C         142.7006  133.8831  156.4541 C.3     1  UNL1        0.0325
     15 C         143.1229  135.3214  156.5094 C.3     1  UNL1        0.1238
     16 O         142.1965  136.1105  155.6325 O.3     1  UNL1       -0.3582
     17 N         141.1939  140.5395  165.4739 N.pl3   1  UNL1       -0.3039
     18 C         142.1800  139.4748  165.0939 C.3     1  UNL1        0.0923
     19 C         142.7652  139.1808  163.7444 C.3     1  UNL1        0.0387
     20 C         142.5089  139.8788  162.4416 C.3     1  UNL1        0.0739
     21 N         141.6042  141.0431  162.1666 N.3     1  UNL1       -0.2720
     22 C         140.7322  141.7971  163.1264 C.3     1  UNL1        0.0937
     23 C         140.5496  141.5730  164.5982 C.3     1  UNL1        0.1081
     24 C         139.5253  139.9234  167.3675 C.ar    1  UNL1       -0.0044
     25 C         139.1315  139.9592  168.8144 C.ar    1  UNL1        0.0161
     26 C         140.0127  140.6469  169.8148 C.ar    1  UNL1        0.0812
     27 N         141.2876  141.2989  169.3681 N.ar    1  UNL1       -0.2865
     28 C         142.3498  142.0455  170.1192 C.ar    1  UNL1        0.1022
     29 C         143.4000  142.4712  169.1364 C.ar    1  UNL1        0.1196
     30 N         142.9869  141.9876  167.7780 N.ar    1  UNL1       -0.2236
     31 C         141.6813  141.2630  167.9211 C.ar    1  UNL1        0.1609
     32 C         140.8002  140.5753  166.9208 C.ar    1  UNL1        0.0788
     33 C         137.6614  138.1976  166.8219 C.3     1  UNL1        0.0051
     34 C         138.6441  139.2356  166.3672 C.3     1  UNL1        0.0278
     35 C         141.0311  142.8795  160.4203 C.3     1  UNL1        0.1007
     36 C         141.9182  144.0826  160.5454 C.2     1  UNL1        0.2207
     37 N         143.1077  144.0455  161.4585 N.am    1  UNL1       -0.3288
     38 O         141.6158  145.3226  159.7575 O.2     1  UNL1       -0.2753
     39 H         143.3061  143.2316  161.9756 H       1  UNL1        0.1449
     40 H         143.6900  144.8351  161.5407 H       1  UNL1        0.1449
@<TRIPOS>BOND
     1    33    34    1
     2    34    24    1
     3    24    25   ar
     4    25    26   ar
     5    26    27   ar
     6    27    28   ar
     7    28    29   ar
     8    29    30   ar
     9    30    31   ar
    10    31    32   ar
    11    32    17    1
    12    17    18    1
    13    18    19    1
    14    19    20    1
    15    20    21    1
    16    21     1    1
    17     1    35    1
    18    35    36    1
    19    36    37   am
    20    36    38    2
    21     1     2    1
    22     2     3    1
    23     3     4    1
    24     4     5    1
    25     5     6   am
    26     6     7    2
    27    10     6    1
    28    10    11    1
    29    12    11    1
    30    12    13    1
    31    13    14    1
    32    15    14    1
    33    15    16    1
    34     5     8    1
    35     8     9    1
    36    21    22    1
    37    22    23    1
    38    32    24   ar
    39    23    17    1
    40    31    27   ar
    41     9     2    1
    42    15    10    1
    43    16    12    1
    44    37    39    1
    45    37    40    1
@<TRIPOS>MOLECULE
*****
 40 45 0 0 0
SMALL
GASTEIGER

@<TRIPOS>ATOM
      1 C         140.3634  143.1249  161.2826 C.3     1  UNL1        0.0667
      2 C         139.8507  142.3586  160.0994 C.3     1  UNL1        0.0186
      3 C         138.8527  142.9881  159.1733 C.3     1  UNL1        0.0229
      4 C         138.3400  142.2218  157.9901 C.3     1  UNL1        0.0934
      5 N         138.8253  140.8260  157.7331 N.am    1  UNL1       -0.2795
      6 C         138.3126  140.0597  156.5499 C.2     1  UNL1        0.2276
      7 O         138.7979  138.6637  156.2929 O.2     1  UNL1       -0.2748
      8 C         139.8233  140.1964  158.6592 C.3     1  UNL1        0.0934
      9 C         140.3359  140.9627  159.8424 C.3     1  UNL1        0.0229
     10 C         137.3146  140.6891  155.6238 C.3     1  UNL1        0.1062
     11 C         135.8241  140.6740  155.7916 C.3     1  UNL1        0.0411
     12 C         135.2202  141.4198  154.6388 C.3     1  UNL1        0.1158
     13 C         135.5374  142.1749  153.3822 C.3     1  UNL1        0.0321
     14 C         137.0279  142.1901  153.2143 C.3     1  UNL1        0.0325
     15 C         137.6319  141.4443  154.3672 C.3     1  UNL1        0.1238
     16 O         136.5147  140.9682  155.2475 O.3     1  UNL1       -0.3582
     17 N         140.7937  141.3774  165.7802 N.pl3   1  UNL1       -0.3039
     18 C         139.3377  141.0924  165.5587 C.3     1  UNL1        0.0923
     19 C         138.5029  141.3779  164.3456 C.3     1  UNL1        0.0387
     20 C         138.9179  142.0188  163.0544 C.3     1  UNL1        0.0739
     21 N         140.2700  142.5326  162.6575 N.3     1  UNL1       -0.2720
     22 C         141.5413  142.5323  163.4537 C.3     1  UNL1        0.0937
     23 C         141.7744  142.0182  164.8434 C.3     1  UNL1        0.1081
     24 C         142.1085  139.6854  167.2494 C.ar    1  UNL1       -0.0044
     25 C         142.6561  139.2754  168.5842 C.ar    1  UNL1        0.0161
     26 C         142.4365  140.1472  169.7850 C.ar    1  UNL1        0.0812
     27 N         141.6693  141.4291  169.6507 N.ar    1  UNL1       -0.2865
     28 C         141.2966  142.4849  170.6489 C.ar    1  UNL1        0.1022
     29 C         140.5187  143.5476  169.9308 C.ar    1  UNL1        0.1196
     30 N         140.4105  143.1485  168.4889 N.ar    1  UNL1       -0.2236
     31 C         141.1216  141.8392  168.3158 C.ar    1  UNL1        0.1609
     32 C         141.3413  140.9673  167.1152 C.ar    1  UNL1        0.0788
     33 C         143.6878  138.7310  165.4205 C.3     1  UNL1        0.0051
     34 C         142.3282  138.8136  166.0486 C.3     1  UNL1        0.0278
     35 C         140.9694  144.4836  161.0908 C.3     1  UNL1        0.1007
     36 C         140.3977  145.6684  161.8115 C.2     1  UNL1        0.2207
     37 N         141.0119  146.1306  163.0996 N.am    1  UNL1       -0.3288
     38 O         139.2119  146.3909  161.2442 O.2     1  UNL1       -0.2753
     39 H         141.7902  145.6564  163.4719 H       1  UNL1        0.1449
     40 H         140.6367  146.9083  163.5727 H       1  UNL1        0.1449
@<TRIPOS>BOND
     1    33    34    1
     2    34    24    1
     3    24    25   ar
     4    25    26   ar
     5    26    27   ar
     6    27    28   ar
     7    28    29   ar
     8    29    30   ar
     9    30    31   ar
    10    31    32   ar
    11    32    17    1
    12    17    18    1
    13    18    19    1
    14    19    20    1
    15    20    21    1
    16    21     1    1
    17     1    35    1
    18    35    36    1
    19    36    37   am
    20    36    38    2
    21     1     2    1
    22     2     3    1
    23     3     4    1
    24     4     5    1
    25     5     6   am
    26     6     7    2
    27    10     6    1
    28    10    11    1
    29    12    11    1
    30    12    13    1
    31    13    14    1
    32    15    14    1
    33    15    16    1
    34     5     8    1
    35     8     9    1
    36    21    22    1
    37    22    23    1
    38    32    24   ar
    39    23    17    1
    40    31    27   ar
    41     9     2    1
    42    15    10    1
    43    16    12    1
    44    37    39    1
    45    37    40    1
@<TRIPOS>MOLECULE
*****
 40 45 0 0 0
SMALL
GASTEIGER

@<TRIPOS>ATOM
      1 C         143.0398  140.1302  158.7059 C.3     1  UNL1        0.0667
      2 C         142.8841  139.8160  160.1643 C.3     1  UNL1        0.0186
      3 C         141.5338  139.9065  160.8111 C.3     1  UNL1        0.0229
      4 C         141.3782  139.5923  162.2696 C.3     1  UNL1        0.0934
      5 N         142.5729  139.1875  163.0812 N.am    1  UNL1       -0.2795
      6 C         142.4172  138.8733  164.5396 C.2     1  UNL1        0.2276
      7 O         143.6120  138.4685  165.3513 O.2     1  UNL1       -0.2748
      8 C         143.9233  139.0969  162.4344 C.3     1  UNL1        0.0934
      9 C         144.0788  139.4111  160.9760 C.3     1  UNL1        0.0229
     10 C         141.0669  138.9639  165.1865 C.3     1  UNL1        0.1062
     11 C         140.5693  140.0975  166.0334 C.3     1  UNL1        0.0411
     12 C         139.1720  139.7711  166.4703 C.3     1  UNL1        0.1158
     13 C         138.0822  138.7440  166.3839 C.3     1  UNL1        0.0321
     14 C         138.5798  137.6104  165.5369 C.3     1  UNL1        0.0325
     15 C         139.9771  137.9368  165.1000 C.3     1  UNL1        0.1238
     16 O         140.3432  139.2722  165.6768 O.3     1  UNL1       -0.3582
     17 N         143.4048  136.1474  155.9724 N.pl3   1  UNL1       -0.3039
     18 C         144.2830  137.0611  155.1698 C.3     1  UNL1        0.0923
     19 C         144.6334  138.4948  155.4377 C.3     1  UNL1        0.0387
     20 C         144.1923  139.3688  156.5741 C.3     1  UNL1        0.0739
     21 N         143.2918  139.0251  157.7233 N.3     1  UNL1       -0.2720
     22 C         142.6099  137.7224  158.0201 C.3     1  UNL1        0.0937
     23 C         142.6602  136.4417  157.2408 C.3     1  UNL1        0.1081
     24 C         142.5373  134.5274  154.1357 C.ar    1  UNL1       -0.0044
     25 C         142.3834  133.1354  153.5987 C.ar    1  UNL1        0.0161
     26 C         142.9429  131.9711  154.3613 C.ar    1  UNL1        0.0812
     27 N         143.6564  132.1990  155.6609 N.ar    1  UNL1       -0.2865
     28 C         144.3078  131.2546  156.6272 C.ar    1  UNL1        0.1022
     29 C         144.8644  132.0631  157.7615 C.ar    1  UNL1        0.1196
     30 N         144.5569  133.5071  157.4962 N.ar    1  UNL1       -0.2236
     31 C         143.8103  133.5911  156.1979 C.ar    1  UNL1        0.1609
     32 C         143.2508  134.7553  155.4353 C.ar    1  UNL1        0.0788
     33 C         140.5641  136.1337  153.6102 C.3     1  UNL1        0.0051
     34 C         141.9778  135.6917  153.3732 C.3     1  UNL1        0.0278
     35 C         142.9433  141.5495  158.2300 C.3     1  UNL1        0.1007
     36 C         143.9358  142.5689  158.7052 C.2     1  UNL1        0.2207
     37 N         145.1576  142.8644  157.8866 N.am    1  UNL1       -0.3288
     38 O         143.7065  143.2927  159.9988 O.2     1  UNL1       -0.2753
     39 H         145.3080  142.3893  157.0376 H       1  UNL1        0.1449
     40 H         145.8090  143.5335  158.1985 H       1  UNL1        0.1449
@<TRIPOS>BOND
     1    33    34    1
     2    34    24    1
     3    24    25   ar
     4    25    26   ar
     5    26    27   ar
     6    27    28   ar
     7    28    29   ar
     8    29    30   ar
     9    30    31   ar
    10    31    32   ar
    11    32    17    1
    12    17    18    1
    13    18    19    1
    14    19    20    1
    15    20    21    1
    16    21     1    1
    17     1    35    1
    18    35    36    1
    19    36    37   am
    20    36    38    2
    21     1     2    1
    22     2     3    1
    23     3     4    1
    24     4     5    1
    25     5     6   am
    26     6     7    2
    27    10     6    1
    28    10    11    1
    29    12    11    1
    30    12    13    1
    31    13    14    1
    32    15    14    1
    33    15    16    1
    34     5     8    1
    35     8     9    1
    36    21    22    1
    37    22    23    1
    38    32    24   ar
    39    23    17    1
    40    31    27   ar
    41     9     2    1
    42    15    10    1
    43    16    12    1
    44    37    39    1
    45    37    40    1
@<TRIPOS>MOLECULE
*****
 40 45 0 0 0
SMALL
GASTEIGER

@<TRIPOS>ATOM
      1 C         140.4367  140.0538  159.9700 C.3     1  UNL1        0.0667
      2 C         141.2568  139.3806  158.9097 C.3     1  UNL1        0.0186
      3 C         140.7070  138.1922  158.1780 C.3     1  UNL1        0.0229
      4 C         141.5271  137.5189  157.1177 C.3     1  UNL1        0.0934
      5 N         142.8969  138.0341  156.7891 N.am    1  UNL1       -0.2795
      6 C         143.7170  137.3609  155.7288 C.2     1  UNL1        0.2276
      7 O         145.0869  137.8761  155.4002 O.2     1  UNL1       -0.2748
      8 C         143.4468  139.2226  157.5208 C.3     1  UNL1        0.0934
      9 C         142.6267  139.8958  158.5811 C.3     1  UNL1        0.0229
     10 C         143.1673  136.1724  154.9971 C.3     1  UNL1        0.1062
     11 C         143.3787  134.7342  155.3669 C.3     1  UNL1        0.0411
     12 C         142.6517  133.8864  154.3656 C.3     1  UNL1        0.1158
     13 C         141.7940  133.9275  153.1356 C.3     1  UNL1        0.0321
     14 C         141.5826  135.3658  152.7658 C.3     1  UNL1        0.0325
     15 C         142.3096  136.2136  153.7672 C.3     1  UNL1        0.1238
     16 O         142.9703  135.2993  154.7559 O.3     1  UNL1       -0.3582
     17 N         141.5092  140.4090  164.6808 N.pl3   1  UNL1       -0.3039
     18 C         141.9143  138.9820  164.4574 C.3     1  UNL1        0.0923
     19 C         141.8545  138.1802  163.1910 C.3     1  UNL1        0.0387
     20 C         141.3747  138.6073  161.8354 C.3     1  UNL1        0.0739
     21 N         140.8363  139.9415  161.4114 N.3     1  UNL1       -0.2720
     22 C         140.6447  141.1783  162.2382 C.3     1  UNL1        0.0937
     23 C         140.9441  141.3864  163.6932 C.3     1  UNL1        0.1081
     24 C         142.8786  141.7846  166.4078 C.ar    1  UNL1       -0.0044
     25 C         143.0629  142.3024  167.8033 C.ar    1  UNL1        0.0161
     26 C         142.0620  141.9626  168.8678 C.ar    1  UNL1        0.0812
     27 N         140.8769  141.1049  168.5364 N.ar    1  UNL1       -0.2865
     28 C         139.7336  140.6074  169.3703 C.ar    1  UNL1        0.1022
     29 C         138.8427  139.7821  168.4899 C.ar    1  UNL1        0.1196
     30 N         139.4354  139.7694  167.1120 N.ar    1  UNL1       -0.2236
     31 C         140.6926  140.5870  167.1408 C.ar    1  UNL1        0.1609
     32 C         141.6935  140.9268  166.0764 C.ar    1  UNL1        0.0788
     33 C         144.4577  143.5065  165.2714 C.3     1  UNL1        0.0051
     34 C         143.8794  142.1243  165.3433 C.3     1  UNL1        0.0278
     35 C         139.2170  140.8394  159.5888 C.3     1  UNL1        0.1007
     36 C         137.8591  140.2093  159.6840 C.2     1  UNL1        0.2207
     37 N         137.3798  139.6546  160.9927 N.am    1  UNL1       -0.3288
     38 O         136.9805  140.1339  158.4706 O.2     1  UNL1       -0.2753
     39 H         137.9564  139.7041  161.7891 H       1  UNL1        0.1449
     40 H         136.4885  139.2410  161.0552 H       1  UNL1        0.1449
@<TRIPOS>BOND
     1    33    34    1
     2    34    24    1
     3    24    25   ar
     4    25    26   ar
     5    26    27   ar
     6    27    28   ar
     7    28    29   ar
     8    29    30   ar
     9    30    31   ar
    10    31    32   ar
    11    32    17    1
    12    17    18    1
    13    18    19    1
    14    19    20    1
    15    20    21    1
    16    21     1    1
    17     1    35    1
    18    35    36    1
    19    36    37   am
    20    36    38    2
    21     1     2    1
    22     2     3    1
    23     3     4    1
    24     4     5    1
    25     5     6   am
    26     6     7    2
    27    10     6    1
    28    10    11    1
    29    12    11    1
    30    12    13    1
    31    13    14    1
    32    15    14    1
    33    15    16    1
    34     5     8    1
    35     8     9    1
    36    21    22    1
    37    22    23    1
    38    32    24   ar
    39    23    17    1
    40    31    27   ar
    41     9     2    1
    42    15    10    1
    43    16    12    1
    44    37    39    1
    45    37    40    1
