@<TRIPOS>MOLECULE
*****
 40 42 0 0 0
SMALL
GASTEIGER

@<TRIPOS>ATOM
      1 C         143.0876  141.1972  159.0570 C.2     1  UNL1        0.2485
      2 O         143.7732  141.1192  160.3889 O.2     1  UNL1       -0.2726
      3 N         141.7485  141.8630  158.9407 N.am    1  UNL1       -0.2823
      4 H         141.2985  141.9142  158.0665 H       1  UNL1        0.1549
      5 C         147.2976  141.7416  155.3671 C.ar    1  UNL1        0.1054
      6 C         146.9929  142.6389  156.5298 C.ar    1  UNL1        0.0181
      7 C         145.8213  142.3430  157.4186 C.ar    1  UNL1       -0.0011
      8 C         144.9545  141.1498  157.1446 C.ar    1  UNL1        0.0022
      9 C         145.2593  140.2526  155.9819 C.ar    1  UNL1       -0.0030
     10 C         146.4309  140.5484  155.0931 C.ar    1  UNL1        0.0155
     11 C         144.2343  139.1576  155.9602 C.3     1  UNL1        0.1206
     12 N         143.2960  139.3782  157.1095 N.am    1  UNL1       -0.2654
     13 C         142.1191  138.5185  157.4645 C.2     1  UNL1        0.2275
     14 O         141.2668  138.8658  158.6489 O.2     1  UNL1       -0.2748
     15 C         143.7412  140.6095  157.8415 C.3     1  UNL1        0.1750
     16 C         149.6407  142.3333  153.5895 C.3     1  UNL1        0.1816
     17 S         148.4692  142.0374  154.4783 S.O2    1  UNL1        0.0104
     18 O         149.4059  141.6783  155.5935 O.2     1  UNL1       -0.1686
     19 O         147.5325  142.3965  153.3631 O.2     1  UNL1       -0.1686
     20 C         141.7947  137.3116  156.6350 C.3     1  UNL1        0.1014
     21 C         141.0166  137.4637  155.3617 C.3     1  UNL1        0.1150
     22 C         139.5211  137.3488  155.3783 C.1     1  UNL1        0.0737
     23 N         138.0256  137.2339  155.3948 N.1     1  UNL1       -0.1959
     24 C         141.0950  142.4507  160.1562 C.ar    1  UNL1        0.0503
     25 C         140.3636  141.5621  161.1182 C.ar    1  UNL1        0.0144
     26 C         139.7100  142.1499  162.3337 C.ar    1  UNL1       -0.0002
     27 C         139.7880  143.6262  162.5873 C.ar    1  UNL1        0.0182
     28 C         140.5194  144.5148  161.6253 C.ar    1  UNL1       -0.0002
     29 C         141.1729  143.9270  160.4098 C.ar    1  UNL1        0.0144
     30 C         139.1344  144.2139  163.8028 C.3     1  UNL1        0.2827
     31 O         138.0114  144.7269  162.9510 O.3     1  UNL1       -0.3692
     32 H         138.1678  144.4792  162.0263 H       1  UNL1        0.2112
     33 C         138.4809  144.8016  165.0183 C.3     1  UNL1        0.4311
     34 F         137.8274  145.3894  166.2338 F       1  UNL1       -0.1669
     35 F         137.3253  143.8599  164.8524 F       1  UNL1       -0.1669
     36 F         139.1112  145.3959  165.2030 F       1  UNL1       -0.1669
     37 C         140.2575  143.7009  164.6546 C.3     1  UNL1        0.4311
     38 F         141.3805  143.1879  165.5065 F       1  UNL1       -0.1669
     39 F         140.8892  144.2307  164.3310 F       1  UNL1       -0.1669
     40 F         139.6172  142.6386  165.4981 F       1  UNL1       -0.1669
@<TRIPOS>BOND
     1    16    17    1
     2    17    18    2
     3    17    19    2
     4    17     5    1
     5     5     6   ar
     6     6     7   ar
     7     7     8   ar
     8     8     9   ar
     9     9    10   ar
    10     9    11    1
    11    11    12    1
    12    12    13   am
    13    13    14    2
    14    13    20    1
    15    20    21    1
    16    21    22    1
    17    22    23    3
    18    12    15    1
    19    15     1    1
    20     1     2    2
    21     1     3   am
    22     3    24    1
    23    24    25   ar
    24    25    26   ar
    25    26    27   ar
    26    27    30    1
    27    30    31    1
    28    30    33    1
    29    33    34    1
    30    33    35    1
    31    33    36    1
    32    30    37    1
    33    37    38    1
    34    37    39    1
    35    37    40    1
    36    27    28   ar
    37    28    29   ar
    38    10     5   ar
    39    29    24   ar
    40    15     8    1
    41     3     4    1
    42    31    32    1
@<TRIPOS>MOLECULE
*****
 40 42 0 0 0
SMALL
GASTEIGER

@<TRIPOS>ATOM
      1 C         141.5742  140.2484  162.0546 C.2     1  UNL1        0.2485
      2 O         140.3866  139.3362  161.9684 O.2     1  UNL1       -0.2726
      3 N         142.5836  140.2722  160.9453 N.am    1  UNL1       -0.2823
      4 H         143.3631  140.8708  161.0018 H       1  UNL1        0.1549
      5 C         142.4262  140.3843  167.6126 C.ar    1  UNL1        0.1054
      6 C         142.3005  139.1659  166.7468 C.ar    1  UNL1        0.0181
      7 C         142.0732  139.3144  165.2715 C.ar    1  UNL1       -0.0011
      8 C         141.9717  140.6812  164.6621 C.ar    1  UNL1        0.0022
      9 C         142.0975  141.8996  165.5280 C.ar    1  UNL1       -0.0030
     10 C         142.3247  141.7511  167.0032 C.ar    1  UNL1        0.0155
     11 C         141.9558  143.1083  164.6509 C.3     1  UNL1        0.1206
     12 N         141.7425  142.6368  163.2430 N.am    1  UNL1       -0.2654
     13 C         141.5527  143.5117  162.0394 C.2     1  UNL1        0.2275
     14 O         141.3489  142.8940  160.6878 O.2     1  UNL1       -0.2748
     15 C         141.7524  141.1368  163.2499 C.3     1  UNL1        0.1750
     16 C         142.8807  140.0874  170.5631 C.3     1  UNL1        0.1816
     17 S         142.6534  140.2358  169.0878 S.O2    1  UNL1        0.0104
     18 O         143.0495  138.8037  168.8827 O.2     1  UNL1       -0.1686
     19 O         142.2574  141.6680  169.2930 O.2     1  UNL1       -0.1686
     20 C         141.5667  145.0043  162.1874 C.3     1  UNL1        0.1014
     21 C         140.2849  145.7786  162.1014 C.3     1  UNL1        0.1150
     22 C         138.9847  145.1180  162.4522 C.1     1  UNL1        0.0737
     23 N         137.6844  144.4574  162.8029 N.1     1  UNL1       -0.1959
     24 C         142.4054  139.3837  159.7499 C.ar    1  UNL1        0.0503
     25 C         142.9735  137.9955  159.7558 C.ar    1  UNL1        0.0144
     26 C         142.7953  137.1071  158.5604 C.ar    1  UNL1       -0.0002
     27 C         142.0489  137.6068  157.3591 C.ar    1  UNL1        0.0182
     28 C         141.4808  138.9950  157.3532 C.ar    1  UNL1       -0.0002
     29 C         141.6590  139.8834  158.5486 C.ar    1  UNL1        0.0144
     30 C         141.8707  136.7184  156.1638 C.3     1  UNL1        0.2827
     31 O         140.4118  136.5805  156.4838 O.3     1  UNL1       -0.3692
     32 H         140.2059  137.0924  157.2816 H       1  UNL1        0.2112
     33 C         141.6925  135.8299  154.9684 C.3     1  UNL1        0.4311
     34 F         141.5143  134.9415  153.7730 F       1  UNL1       -0.1669
     35 F         141.4805  134.6534  155.8744 F       1  UNL1       -0.1669
     36 F         141.8039  136.4556  154.3513 F       1  UNL1       -0.1669
     37 C         143.3297  136.8563  155.8437 C.3     1  UNL1        0.4311
     38 F         144.7886  136.9942  155.5237 F       1  UNL1       -0.1669
     39 F         143.3048  137.7044  155.5894 F       1  UNL1       -0.1669
     40 F         143.8978  135.5021  156.1492 F       1  UNL1       -0.1669
@<TRIPOS>BOND
     1    16    17    1
     2    17    18    2
     3    17    19    2
     4    17     5    1
     5     5     6   ar
     6     6     7   ar
     7     7     8   ar
     8     8     9   ar
     9     9    10   ar
    10     9    11    1
    11    11    12    1
    12    12    13   am
    13    13    14    2
    14    13    20    1
    15    20    21    1
    16    21    22    1
    17    22    23    3
    18    12    15    1
    19    15     1    1
    20     1     2    2
    21     1     3   am
    22     3    24    1
    23    24    25   ar
    24    25    26   ar
    25    26    27   ar
    26    27    30    1
    27    30    31    1
    28    30    33    1
    29    33    34    1
    30    33    35    1
    31    33    36    1
    32    30    37    1
    33    37    38    1
    34    37    39    1
    35    37    40    1
    36    27    28   ar
    37    28    29   ar
    38    10     5   ar
    39    29    24   ar
    40    15     8    1
    41     3     4    1
    42    31    32    1
@<TRIPOS>MOLECULE
*****
 40 42 0 0 0
SMALL
GASTEIGER

@<TRIPOS>ATOM
      1 C         143.7254  140.2296  158.7573 C.2     1  UNL1        0.2485
      2 O         142.8569  141.4006  159.1103 O.2     1  UNL1       -0.2726
      3 N         144.0932  139.2249  159.8086 N.am    1  UNL1       -0.2823
      4 H         144.6632  138.4563  159.5769 H       1  UNL1        0.1549
      5 C         147.1799  142.2800  154.8205 C.ar    1  UNL1        0.1054
      6 C         146.9795  142.8066  156.2106 C.ar    1  UNL1        0.0181
      7 C         146.0105  142.1320  157.1358 C.ar    1  UNL1       -0.0011
      8 C         145.2420  140.9307  156.6708 C.ar    1  UNL1        0.0022
      9 C         145.4424  140.4040  155.2808 C.ar    1  UNL1       -0.0030
     10 C         146.4114  141.0787  154.3556 C.ar    1  UNL1        0.0155
     11 C         144.5502  139.2112  155.1038 C.3     1  UNL1        0.1206
     12 N         143.7985  139.0007  156.3846 N.am    1  UNL1       -0.2654
     13 C         142.7952  137.9176  156.6504 C.2     1  UNL1        0.2275
     14 O         142.1201  137.8322  157.9871 O.2     1  UNL1       -0.2748
     15 C         144.2260  140.0634  157.3531 C.3     1  UNL1        0.1750
     16 C         149.1179  143.6292  152.9701 C.3     1  UNL1        0.1816
     17 S         148.1489  142.9546  153.8953 S.O2    1  UNL1        0.0104
     18 O         148.8749  141.6553  153.7083 O.2     1  UNL1       -0.1686
     19 O         147.4230  144.2538  154.0823 O.2     1  UNL1       -0.1686
     20 C         142.4672  136.9199  155.5794 C.3     1  UNL1        0.1014
     21 C         143.2714  135.6597  155.4566 C.3     1  UNL1        0.1150
     22 C         143.4836  134.7854  156.6569 C.1     1  UNL1        0.0737
     23 N         143.6957  133.9111  157.8571 N.1     1  UNL1       -0.1959
     24 C         143.5926  139.3911  161.2127 C.ar    1  UNL1        0.0503
     25 C         142.2465  138.8527  161.5978 C.ar    1  UNL1        0.0144
     26 C         141.7459  139.0190  163.0020 C.ar    1  UNL1       -0.0002
     27 C         142.5913  139.7236  164.0212 C.ar    1  UNL1        0.0182
     28 C         143.9373  140.2620  163.6361 C.ar    1  UNL1       -0.0002
     29 C         144.4380  140.0957  162.2319 C.ar    1  UNL1        0.0144
     30 C         142.0907  139.8898  165.4253 C.3     1  UNL1        0.2827
     31 O         141.2222  141.0292  164.9808 O.3     1  UNL1       -0.3692
     32 H         141.3402  141.1734  164.0289 H       1  UNL1        0.2112
     33 C         141.5901  140.0561  166.8295 C.3     1  UNL1        0.4311
     34 F         141.0895  140.2223  168.2337 F       1  UNL1       -0.1669
     35 F         142.4193  141.2971  166.9782 F       1  UNL1       -0.1669
     36 F         141.0680  139.3407  166.8434 F       1  UNL1       -0.1669
     37 C         142.9592  138.7505  165.8698 C.3     1  UNL1        0.4311
     38 F         143.8276  137.6111  166.3144 F       1  UNL1       -0.1669
     39 F         143.5733  139.2374  166.2825 F       1  UNL1       -0.1669
     40 F         142.2562  137.5329  165.3472 F       1  UNL1       -0.1669
@<TRIPOS>BOND
     1    16    17    1
     2    17    18    2
     3    17    19    2
     4    17     5    1
     5     5     6   ar
     6     6     7   ar
     7     7     8   ar
     8     8     9   ar
     9     9    10   ar
    10     9    11    1
    11    11    12    1
    12    12    13   am
    13    13    14    2
    14    13    20    1
    15    20    21    1
    16    21    22    1
    17    22    23    3
    18    12    15    1
    19    15     1    1
    20     1     2    2
    21     1     3   am
    22     3    24    1
    23    24    25   ar
    24    25    26   ar
    25    26    27   ar
    26    27    30    1
    27    30    31    1
    28    30    33    1
    29    33    34    1
    30    33    35    1
    31    33    36    1
    32    30    37    1
    33    37    38    1
    34    37    39    1
    35    37    40    1
    36    27    28   ar
    37    28    29   ar
    38    10     5   ar
    39    29    24   ar
    40    15     8    1
    41     3     4    1
    42    31    32    1
@<TRIPOS>MOLECULE
*****
 40 42 0 0 0
SMALL
GASTEIGER

@<TRIPOS>ATOM
      1 C         142.0355  137.8840  157.4972 C.2     1  UNL1        0.2485
      2 O         140.8680  138.2581  158.3614 O.2     1  UNL1       -0.2726
      3 N         143.3341  138.6228  157.6302 N.am    1  UNL1       -0.2823
      4 H         144.1005  138.3772  157.0630 H       1  UNL1        0.1549
      5 C         143.5321  132.6066  156.2538 C.ar    1  UNL1        0.1054
      6 C         143.9301  133.3979  157.4644 C.ar    1  UNL1        0.0181
      7 C         143.4356  134.8034  157.6376 C.ar    1  UNL1       -0.0011
      8 C         142.5431  135.4176  156.6004 C.ar    1  UNL1        0.0022
      9 C         142.1451  134.6264  155.3898 C.ar    1  UNL1       -0.0030
     10 C         142.6396  133.2209  155.2165 C.ar    1  UNL1        0.0155
     11 C         141.2604  135.4909  154.5412 C.3     1  UNL1        0.1206
     12 N         141.1117  136.8164  155.2274 N.am    1  UNL1       -0.2654
     13 C         140.3108  137.9826  154.7285 C.2     1  UNL1        0.2275
     14 O         140.2551  139.2508  155.5275 O.2     1  UNL1       -0.2748
     15 C         141.9044  136.7711  156.5000 C.3     1  UNL1        0.1750
     16 C         144.5212  129.7956  155.9073 C.3     1  UNL1        0.1816
     17 S         144.0267  131.2011  156.0805 S.O2    1  UNL1        0.0104
     18 O         142.6108  130.7139  155.9915 O.2     1  UNL1       -0.1686
     19 O         145.4425  131.6884  156.1696 O.2     1  UNL1       -0.1686
     20 C         139.5657  137.8804  153.4307 C.3     1  UNL1        0.1014
     21 C         138.2119  137.2356  153.3918 C.3     1  UNL1        0.1150
     22 C         137.0691  137.8448  154.1486 C.1     1  UNL1        0.0737
     23 N         135.9262  138.4539  154.9054 N.1     1  UNL1       -0.1959
     24 C         143.4652  139.7356  158.6274 C.ar    1  UNL1        0.0503
     25 C         143.7540  141.1313  158.1600 C.ar    1  UNL1        0.0144
     26 C         143.8851  142.2442  159.1572 C.ar    1  UNL1       -0.0002
     27 C         143.7274  141.9614  160.6218 C.ar    1  UNL1        0.0182
     28 C         143.4386  140.5656  161.0892 C.ar    1  UNL1       -0.0002
     29 C         143.3075  139.4528  160.0920 C.ar    1  UNL1        0.0144
     30 C         143.8585  143.0742  161.6189 C.3     1  UNL1        0.2827
     31 O         142.8226  143.8633  160.8744 O.3     1  UNL1       -0.3692
     32 H         142.5194  143.3549  160.1060 H       1  UNL1        0.2112
     33 C         143.9895  144.1870  162.6161 C.3     1  UNL1        0.4311
     34 F         144.1206  145.2999  163.6133 F       1  UNL1       -0.1669
     35 F         142.5986  143.9122  163.1057 F       1  UNL1       -0.1669
     36 F         144.8142  144.4282  162.4010 F       1  UNL1       -0.1669
     37 C         144.8943  142.2851  162.3634 C.3     1  UNL1        0.4311
     38 F         145.9301  141.4959  163.1079 F       1  UNL1       -0.1669
     39 F         145.5123  142.2923  161.7289 F       1  UNL1       -0.1669
     40 F         144.2454  141.9880  163.6828 F       1  UNL1       -0.1669
@<TRIPOS>BOND
     1    16    17    1
     2    17    18    2
     3    17    19    2
     4    17     5    1
     5     5     6   ar
     6     6     7   ar
     7     7     8   ar
     8     8     9   ar
     9     9    10   ar
    10     9    11    1
    11    11    12    1
    12    12    13   am
    13    13    14    2
    14    13    20    1
    15    20    21    1
    16    21    22    1
    17    22    23    3
    18    12    15    1
    19    15     1    1
    20     1     2    2
    21     1     3   am
    22     3    24    1
    23    24    25   ar
    24    25    26   ar
    25    26    27   ar
    26    27    30    1
    27    30    31    1
    28    30    33    1
    29    33    34    1
    30    33    35    1
    31    33    36    1
    32    30    37    1
    33    37    38    1
    34    37    39    1
    35    37    40    1
    36    27    28   ar
    37    28    29   ar
    38    10     5   ar
    39    29    24   ar
    40    15     8    1
    41     3     4    1
    42    31    32    1
@<TRIPOS>MOLECULE
*****
 40 42 0 0 0
SMALL
GASTEIGER

@<TRIPOS>ATOM
      1 C         141.4260  139.5213  159.0039 C.2     1  UNL1        0.2485
      2 O         140.7877  140.8070  159.4392 O.2     1  UNL1       -0.2726
      3 N         141.4063  138.3287  159.9134 N.am    1  UNL1       -0.2823
      4 H         141.8252  137.4848  159.6278 H       1  UNL1        0.1549
      5 C         145.7681  141.2352  155.8662 C.ar    1  UNL1        0.1054
      6 C         145.4762  141.6117  157.2885 C.ar    1  UNL1        0.0181
      7 C         144.2644  141.0576  157.9775 C.ar    1  UNL1       -0.0011
      8 C         143.3446  140.1270  157.2440 C.ar    1  UNL1        0.0022
      9 C         143.6365  139.7506  155.8217 C.ar    1  UNL1       -0.0030
     10 C         144.8483  140.3047  155.1328 C.ar    1  UNL1        0.0155
     11 C         142.5562  138.8190  155.3577 C.3     1  UNL1        0.1206
     12 N         141.5967  138.6197  156.4933 N.am    1  UNL1       -0.2654
     13 C         140.3660  137.7625  156.4676 C.2     1  UNL1        0.2275
     14 O         139.4978  137.6599  157.6865 O.2     1  UNL1       -0.2748
     15 C         142.0839  139.4281  157.6591 C.3     1  UNL1        0.1750
     16 C         148.1916  142.3434  154.4884 C.3     1  UNL1        0.1816
     17 S         146.9799  141.7893  155.1773 S.O2    1  UNL1        0.0104
     18 O         147.4430  142.3871  156.4728 O.2     1  UNL1       -0.1686
     19 O         146.5167  141.1916  153.8819 O.2     1  UNL1       -0.1686
     20 C         140.0034  137.0079  155.2229 C.3     1  UNL1        0.1014
     21 C         140.7945  135.7982  154.8221 C.3     1  UNL1        0.1150
     22 C         141.7684  135.1861  155.7848 C.1     1  UNL1        0.0737
     23 N         142.7423  134.5739  156.7475 N.1     1  UNL1       -0.1959
     24 C         140.7484  138.4218  161.2582 C.ar    1  UNL1        0.0503
     25 C         139.3069  138.0380  161.4162 C.ar    1  UNL1        0.0144
     26 C         138.6490  138.1312  162.7609 C.ar    1  UNL1       -0.0002
     27 C         139.4324  138.6081  163.9478 C.ar    1  UNL1        0.0182
     28 C         140.8739  138.9919  163.7899 C.ar    1  UNL1       -0.0002
     29 C         141.5318  138.8987  162.4451 C.ar    1  UNL1        0.0144
     30 C         138.7745  138.7013  165.2926 C.3     1  UNL1        0.2827
     31 O         139.0132  137.2366  165.5108 O.3     1  UNL1       -0.3692
     32 H         139.4658  136.8641  164.7380 H       1  UNL1        0.2112
     33 C         138.1166  138.7945  166.6374 C.3     1  UNL1        0.4311
     34 F         137.4587  138.8876  167.9821 F       1  UNL1       -0.1669
     35 F         139.4054  139.2764  167.2345 F       1  UNL1       -0.1669
     36 F         137.3139  138.5187  166.3841 F       1  UNL1       -0.1669
     37 C         138.5358  140.1660  165.0743 C.3     1  UNL1        0.4311
     38 F         138.2971  141.6307  164.8561 F       1  UNL1       -0.1669
     39 F         137.7299  140.0916  164.7144 F       1  UNL1       -0.1669
     40 F         139.7838  140.8181  165.5914 F       1  UNL1       -0.1669
@<TRIPOS>BOND
     1    16    17    1
     2    17    18    2
     3    17    19    2
     4    17     5    1
     5     5     6   ar
     6     6     7   ar
     7     7     8   ar
     8     8     9   ar
     9     9    10   ar
    10     9    11    1
    11    11    12    1
    12    12    13   am
    13    13    14    2
    14    13    20    1
    15    20    21    1
    16    21    22    1
    17    22    23    3
    18    12    15    1
    19    15     1    1
    20     1     2    2
    21     1     3   am
    22     3    24    1
    23    24    25   ar
    24    25    26   ar
    25    26    27   ar
    26    27    30    1
    27    30    31    1
    28    30    33    1
    29    33    34    1
    30    33    35    1
    31    33    36    1
    32    30    37    1
    33    37    38    1
    34    37    39    1
    35    37    40    1
    36    27    28   ar
    37    28    29   ar
    38    10     5   ar
    39    29    24   ar
    40    15     8    1
    41     3     4    1
    42    31    32    1
@<TRIPOS>MOLECULE
*****
 40 42 0 0 0
SMALL
GASTEIGER

@<TRIPOS>ATOM
      1 C         141.8601  138.9960  158.6363 C.2     1  UNL1        0.2485
      2 O         142.5996  138.1220  159.6053 O.2     1  UNL1       -0.2726
      3 N         140.6249  139.7249  159.0755 N.am    1  UNL1       -0.2823
      4 H         140.1395  140.2986  158.4394 H       1  UNL1        0.1549
      5 C         145.7906  141.3134  155.3473 C.ar    1  UNL1        0.1054
      6 C         145.6655  141.4445  156.8362 C.ar    1  UNL1        0.0181
      7 C         144.5471  140.7536  157.5587 C.ar    1  UNL1       -0.0011
      8 C         143.5539  139.9315  156.7921 C.ar    1  UNL1        0.0022
      9 C         143.6790  139.8004  155.3032 C.ar    1  UNL1       -0.0030
     10 C         144.7974  140.4913  154.5807 C.ar    1  UNL1        0.0155
     11 C         142.5582  138.9290  154.8187 C.3     1  UNL1        0.1206
     12 N         141.7404  138.5216  156.0084 N.am    1  UNL1       -0.2654
     13 C         140.5213  137.6481  155.9829 C.2     1  UNL1        0.2275
     14 O         139.8034  137.3249  157.2597 O.2     1  UNL1       -0.2748
     15 C         142.3558  139.1412  157.2280 C.3     1  UNL1        0.1750
     16 C         148.0273  142.6953  153.9024 C.3     1  UNL1        0.1816
     17 S         146.9089  142.0043  154.6248 S.O2    1  UNL1        0.0104
     18 O         147.2691  142.7371  155.8831 O.2     1  UNL1       -0.1686
     19 O         146.5488  141.2716  153.3665 O.2     1  UNL1       -0.1686
     20 C         140.0201  137.0977  154.6807 C.3     1  UNL1        0.1014
     21 C         139.0231  137.8740  153.8724 C.3     1  UNL1        0.1150
     22 C         137.5880  137.9307  154.3052 C.1     1  UNL1        0.0737
     23 N         136.1529  137.9875  154.7380 N.1     1  UNL1       -0.1959
     24 C         140.1292  139.5797  160.4837 C.ar    1  UNL1        0.0503
     25 C         140.6972  140.4423  161.5715 C.ar    1  UNL1        0.0144
     26 C         140.2016  140.2971  162.9797 C.ar    1  UNL1       -0.0002
     27 C         139.1378  139.2893  163.3003 C.ar    1  UNL1        0.0182
     28 C         138.5697  138.4268  162.2125 C.ar    1  UNL1       -0.0002
     29 C         139.0654  138.5720  160.8043 C.ar    1  UNL1        0.0144
     30 C         138.6421  139.1442  164.7086 C.3     1  UNL1        0.2827
     31 O         137.7407  140.3271  164.5132 O.3     1  UNL1       -0.3692
     32 H         137.8486  140.6706  163.6125 H       1  UNL1        0.2112
     33 C         138.1464  138.9990  166.1168 C.3     1  UNL1        0.4311
     34 F         137.6507  138.8538  167.5251 F       1  UNL1       -0.1669
     35 F         138.8372  140.2766  166.4917 F       1  UNL1       -0.1669
     36 F         137.7058  138.2397  165.9985 F       1  UNL1       -0.1669
     37 C         139.5435  137.9612  164.9039 C.3     1  UNL1        0.4311
     38 F         140.4449  136.7783  165.0992 F       1  UNL1       -0.1669
     39 F         139.0049  137.3550  164.5475 F       1  UNL1       -0.1669
     40 F         140.7607  138.5376  165.5644 F       1  UNL1       -0.1669
@<TRIPOS>BOND
     1    16    17    1
     2    17    18    2
     3    17    19    2
     4    17     5    1
     5     5     6   ar
     6     6     7   ar
     7     7     8   ar
     8     8     9   ar
     9     9    10   ar
    10     9    11    1
    11    11    12    1
    12    12    13   am
    13    13    14    2
    14    13    20    1
    15    20    21    1
    16    21    22    1
    17    22    23    3
    18    12    15    1
    19    15     1    1
    20     1     2    2
    21     1     3   am
    22     3    24    1
    23    24    25   ar
    24    25    26   ar
    25    26    27   ar
    26    27    30    1
    27    30    31    1
    28    30    33    1
    29    33    34    1
    30    33    35    1
    31    33    36    1
    32    30    37    1
    33    37    38    1
    34    37    39    1
    35    37    40    1
    36    27    28   ar
    37    28    29   ar
    38    10     5   ar
    39    29    24   ar
    40    15     8    1
    41     3     4    1
    42    31    32    1
@<TRIPOS>MOLECULE
*****
 40 42 0 0 0
SMALL
GASTEIGER

@<TRIPOS>ATOM
      1 C         143.2074  140.5366  162.1198 C.2     1  UNL1        0.2485
      2 O         144.6601  140.1673  162.1762 O.2     1  UNL1       -0.2726
      3 N         142.6293  141.1161  160.8628 N.am    1  UNL1       -0.2823
      4 H         141.6758  141.3585  160.8258 H       1  UNL1        0.1549
      5 C         142.3431  141.9400  167.4975 C.ar    1  UNL1        0.1054
      6 C         143.4373  142.4348  166.5987 C.ar    1  UNL1        0.0181
      7 C         143.5188  141.9523  165.1807 C.ar    1  UNL1       -0.0011
      8 C         142.5061  140.9751  164.6616 C.ar    1  UNL1        0.0022
      9 C         141.4120  140.4804  165.5604 C.ar    1  UNL1       -0.0030
     10 C         141.3304  140.9628  166.9784 C.ar    1  UNL1        0.0155
     11 C         140.5625  139.5259  164.7746 C.3     1  UNL1        0.1206
     12 N         141.1317  139.4308  163.3901 N.am    1  UNL1       -0.2654
     13 C         140.5941  138.5881  162.2716 C.2     1  UNL1        0.2275
     14 O         141.2729  138.5952  160.9341 O.2     1  UNL1       -0.2748
     15 C         142.3329  140.3265  163.3202 C.3     1  UNL1        0.1750
     16 C         142.1801  142.9049  170.3334 C.3     1  UNL1        0.1816
     17 S         142.2616  142.4225  168.9155 S.O2    1  UNL1        0.0104
     18 O         143.7402  142.6752  168.9145 O.2     1  UNL1       -0.1686
     19 O         140.7830  142.1698  168.9165 O.2     1  UNL1       -0.1686
     20 C         139.3776  137.7382  162.4909 C.3     1  UNL1        0.1014
     21 C         138.0355  138.2138  162.0193 C.3     1  UNL1        0.1150
     22 C         137.7279  139.6816  161.9894 C.1     1  UNL1        0.0737
     23 N         137.4203  141.1494  161.9595 N.1     1  UNL1       -0.1959
     24 C         143.5038  141.3262  159.6624 C.ar    1  UNL1        0.0503
     25 C         144.1896  142.6441  159.4556 C.ar    1  UNL1        0.0144
     26 C         145.0642  142.8542  158.2552 C.ar    1  UNL1       -0.0002
     27 C         145.2529  141.7466  157.2615 C.ar    1  UNL1        0.0182
     28 C         144.5670  140.4287  157.4684 C.ar    1  UNL1       -0.0002
     29 C         143.6925  140.2185  158.6688 C.ar    1  UNL1        0.0144
     30 C         146.1274  141.9567  156.0611 C.3     1  UNL1        0.2827
     31 O         147.2351  142.4356  156.9519 O.3     1  UNL1       -0.3692
     32 H         146.9407  142.4107  157.8758 H       1  UNL1        0.2112
     33 C         147.0019  142.1668  154.8607 C.3     1  UNL1        0.4311
     34 F         147.8764  142.3770  153.6602 F       1  UNL1       -0.1669
     35 F         147.9847  141.1715  155.4024 F       1  UNL1       -0.1669
     36 F         146.4888  142.7653  154.4568 F       1  UNL1       -0.1669
     37 C         145.0197  141.4778  155.1703 C.3     1  UNL1        0.4311
     38 F         143.9119  140.9989  154.2795 F       1  UNL1       -0.1669
     39 F         144.4697  142.1587  155.3063 F       1  UNL1       -0.1669
     40 F         145.5301  140.1777  154.6233 F       1  UNL1       -0.1669
@<TRIPOS>BOND
     1    16    17    1
     2    17    18    2
     3    17    19    2
     4    17     5    1
     5     5     6   ar
     6     6     7   ar
     7     7     8   ar
     8     8     9   ar
     9     9    10   ar
    10     9    11    1
    11    11    12    1
    12    12    13   am
    13    13    14    2
    14    13    20    1
    15    20    21    1
    16    21    22    1
    17    22    23    3
    18    12    15    1
    19    15     1    1
    20     1     2    2
    21     1     3   am
    22     3    24    1
    23    24    25   ar
    24    25    26   ar
    25    26    27   ar
    26    27    30    1
    27    30    31    1
    28    30    33    1
    29    33    34    1
    30    33    35    1
    31    33    36    1
    32    30    37    1
    33    37    38    1
    34    37    39    1
    35    37    40    1
    36    27    28   ar
    37    28    29   ar
    38    10     5   ar
    39    29    24   ar
    40    15     8    1
    41     3     4    1
    42    31    32    1
@<TRIPOS>MOLECULE
*****
 40 42 0 0 0
SMALL
GASTEIGER

@<TRIPOS>ATOM
      1 C         142.5841  138.9096  158.2687 C.2     1  UNL1        0.2485
      2 O         143.3586  138.1367  159.2947 O.2     1  UNL1       -0.2726
      3 N         141.2585  139.5129  158.6276 N.am    1  UNL1       -0.2823
      4 H         140.7500  140.0202  157.9543 H       1  UNL1        0.1549
      5 C         146.3097  141.6830  155.0963 C.ar    1  UNL1        0.1054
      6 C         146.0780  141.8456  156.5693 C.ar    1  UNL1        0.0181
      7 C         145.0354  141.0179  157.2605 C.ar    1  UNL1       -0.0011
      8 C         144.2244  140.0274  156.4786 C.ar    1  UNL1        0.0022
      9 C         144.4561  139.8648  155.0056 C.ar    1  UNL1       -0.0030
     10 C         145.4987  140.6926  154.3144 C.ar    1  UNL1        0.0155
     11 C         143.5098  138.8161  154.5005 C.3     1  UNL1        0.1206
     12 N         142.6934  138.3307  155.6614 N.am    1  UNL1       -0.2654
     13 C         141.6232  137.2809  155.6091 C.2     1  UNL1        0.2275
     14 O         140.8875  136.8969  156.8586 O.2     1  UNL1       -0.2748
     15 C         143.1351  139.0793  156.8840 C.3     1  UNL1        0.1750
     16 C         148.3949  143.3386  153.7140 C.3     1  UNL1        0.1816
     17 S         147.3523  142.5108  154.4051 S.O2    1  UNL1        0.0104
     18 O         146.2761  143.3712  153.8122 O.2     1  UNL1       -0.1686
     19 O         148.4285  141.6504  154.9980 O.2     1  UNL1       -0.1686
     20 C         141.2887  136.6152  154.3072 C.3     1  UNL1        0.1014
     21 C         141.9100  135.2952  153.9584 C.3     1  UNL1        0.1150
     22 C         141.7015  134.1087  154.8521 C.1     1  UNL1        0.0737
     23 N         141.4930  132.9221  155.7458 N.1     1  UNL1       -0.1959
     24 C         140.7075  139.3432  160.0124 C.ar    1  UNL1        0.0503
     25 C         139.5696  138.3967  160.2561 C.ar    1  UNL1        0.0144
     26 C         139.0186  138.2270  161.6408 C.ar    1  UNL1       -0.0002
     27 C         139.6054  139.0037  162.7820 C.ar    1  UNL1        0.0182
     28 C         140.7433  139.9502  162.5383 C.ar    1  UNL1       -0.0002
     29 C         141.2943  140.1199  161.1535 C.ar    1  UNL1        0.0144
     30 C         139.0544  138.8340  164.1668 C.3     1  UNL1        0.2827
     31 O         137.9775  139.8323  163.8606 O.3     1  UNL1       -0.3692
     32 H         138.0813  140.1509  162.9503 H       1  UNL1        0.2112
     33 C         138.5034  138.6644  165.5515 C.3     1  UNL1        0.4311
     34 F         137.9525  138.4947  166.9363 F       1  UNL1       -0.1669
     35 F         138.7757  140.1115  165.8372 F       1  UNL1       -0.1669
     36 F         138.3042  137.8039  165.4838 F       1  UNL1       -0.1669
     37 C         140.1314  137.8358  164.4729 C.3     1  UNL1        0.4311
     38 F         141.2083  136.8376  164.7791 F       1  UNL1       -0.1669
     39 F         139.8277  137.1864  163.9528 F       1  UNL1       -0.1669
     40 F         141.0230  138.5504  165.4446 F       1  UNL1       -0.1669
@<TRIPOS>BOND
     1    16    17    1
     2    17    18    2
     3    17    19    2
     4    17     5    1
     5     5     6   ar
     6     6     7   ar
     7     7     8   ar
     8     8     9   ar
     9     9    10   ar
    10     9    11    1
    11    11    12    1
    12    12    13   am
    13    13    14    2
    14    13    20    1
    15    20    21    1
    16    21    22    1
    17    22    23    3
    18    12    15    1
    19    15     1    1
    20     1     2    2
    21     1     3   am
    22     3    24    1
    23    24    25   ar
    24    25    26   ar
    25    26    27   ar
    26    27    30    1
    27    30    31    1
    28    30    33    1
    29    33    34    1
    30    33    35    1
    31    33    36    1
    32    30    37    1
    33    37    38    1
    34    37    39    1
    35    37    40    1
    36    27    28   ar
    37    28    29   ar
    38    10     5   ar
    39    29    24   ar
    40    15     8    1
    41     3     4    1
    42    31    32    1
@<TRIPOS>MOLECULE
*****
 40 42 0 0 0
SMALL
GASTEIGER

@<TRIPOS>ATOM
      1 C         141.7944  140.5523  162.0178 C.2     1  UNL1        0.2485
      2 O         140.4870  139.9776  162.4766 O.2     1  UNL1       -0.2726
      3 N         142.7924  141.0428  163.0245 N.am    1  UNL1       -0.2823
      4 H         143.6505  141.4199  162.7235 H       1  UNL1        0.1549
      5 C         142.9751  137.6013  157.3774 C.ar    1  UNL1        0.1054
      6 C         142.7138  137.0593  158.7514 C.ar    1  UNL1        0.0181
      7 C         142.4124  137.9970  159.8827 C.ar    1  UNL1       -0.0011
      8 C         142.3721  139.4766  159.6400 C.ar    1  UNL1        0.0022
      9 C         142.6333  140.0186  158.2660 C.ar    1  UNL1       -0.0030
     10 C         142.9348  139.0810  157.1347 C.ar    1  UNL1        0.0155
     11 C         142.5264  141.5135  158.3293 C.3     1  UNL1        0.1206
     12 N         142.1992  141.8954  159.7425 N.am    1  UNL1       -0.2654
     13 C         142.0019  143.2911  160.2555 C.2     1  UNL1        0.2275
     14 O         141.6770  143.5195  161.7020 O.2     1  UNL1       -0.2748
     15 C         142.1038  140.6365  160.5525 C.3     1  UNL1        0.1750
     16 C         143.5780  135.7260  155.1147 C.3     1  UNL1        0.1816
     17 S         143.2765  136.6636  156.2460 S.O2    1  UNL1        0.0104
     18 O         144.4750  137.4887  155.8816 O.2     1  UNL1       -0.1686
     19 O         142.0780  135.8386  156.6105 O.2     1  UNL1       -0.1686
     20 C         142.1294  144.4583  159.3221 C.3     1  UNL1        0.1014
     21 C         140.9464  145.3427  159.0611 C.3     1  UNL1        0.1150
     22 C         140.0857  145.7999  160.2013 C.1     1  UNL1        0.0737
     23 N         139.2249  146.2571  161.3415 N.1     1  UNL1       -0.1959
     24 C         142.4830  140.9585  164.4898 C.ar    1  UNL1        0.0503
     25 C         142.7310  139.6814  165.2365 C.ar    1  UNL1        0.0144
     26 C         142.4216  139.5972  166.7019 C.ar    1  UNL1       -0.0002
     27 C         141.8643  140.7900  167.4205 C.ar    1  UNL1        0.0182
     28 C         141.6163  142.0671  166.6738 C.ar    1  UNL1       -0.0002
     29 C         141.9257  142.1513  165.2085 C.ar    1  UNL1        0.0144
     30 C         141.5549  140.7058  168.8859 C.3     1  UNL1        0.2827
     31 O         140.2822  139.9753  168.5752 O.3     1  UNL1       -0.3692
     32 H         140.1965  139.8691  167.6148 H       1  UNL1        0.2112
     33 C         141.2455  140.6216  170.3512 C.3     1  UNL1        0.4311
     34 F         140.9361  140.5374  171.8165 F       1  UNL1       -0.1669
     35 F         141.4809  139.1406  170.3158 F       1  UNL1       -0.1669
     36 F         141.0852  141.4835  170.4774 F       1  UNL1       -0.1669
     37 C         142.8276  141.4363  169.1966 C.3     1  UNL1        0.4311
     38 F         144.1003  142.1669  169.5073 F       1  UNL1       -0.1669
     39 F         143.3497  140.7233  169.2557 F       1  UNL1       -0.1669
     40 F         142.4228  142.8806  169.2108 F       1  UNL1       -0.1669
@<TRIPOS>BOND
     1    16    17    1
     2    17    18    2
     3    17    19    2
     4    17     5    1
     5     5     6   ar
     6     6     7   ar
     7     7     8   ar
     8     8     9   ar
     9     9    10   ar
    10     9    11    1
    11    11    12    1
    12    12    13   am
    13    13    14    2
    14    13    20    1
    15    20    21    1
    16    21    22    1
    17    22    23    3
    18    12    15    1
    19    15     1    1
    20     1     2    2
    21     1     3   am
    22     3    24    1
    23    24    25   ar
    24    25    26   ar
    25    26    27   ar
    26    27    30    1
    27    30    31    1
    28    30    33    1
    29    33    34    1
    30    33    35    1
    31    33    36    1
    32    30    37    1
    33    37    38    1
    34    37    39    1
    35    37    40    1
    36    27    28   ar
    37    28    29   ar
    38    10     5   ar
    39    29    24   ar
    40    15     8    1
    41     3     4    1
    42    31    32    1
