@<TRIPOS>MOLECULE
*****
 39 43 0 0 0
SMALL
GASTEIGER

@<TRIPOS>ATOM
      1 C         140.7961  138.1802  161.6070 C.3     1  UNL1        0.0719
      2 C         142.1936  137.6440  161.5109 C.3     1  UNL1        0.0196
      3 C         142.9084  137.6453  160.1922 C.3     1  UNL1        0.0017
      4 C         142.2258  138.1830  158.9696 C.3     1  UNL1        0.0015
      5 C         140.8282  138.7192  159.0656 C.3     1  UNL1        0.0017
      6 C         140.1134  138.7179  160.3844 C.3     1  UNL1        0.0196
      7 C         140.4222  139.2054  163.9648 C.2     1  UNL1        0.2458
      8 O         141.4783  140.2333  163.6853 O.2     1  UNL1       -0.2701
      9 N         140.0812  138.1789  162.9257 N.am    1  UNL1       -0.3025
     10 H         139.3881  137.5043  163.1091 H       1  UNL1        0.1497
     11 C         139.5084  140.0383  167.7359 C.ar    1  UNL1        0.0392
     12 C         138.2774  139.2013  167.9207 C.ar    1  UNL1        0.0032
     13 C         137.7614  138.3657  166.7870 C.ar    1  UNL1        0.0002
     14 C         138.4764  138.3670  165.4683 C.ar    1  UNL1        0.0045
     15 C         139.7073  139.2040  165.2834 C.ar    1  UNL1        0.0535
     16 C         140.2234  140.0397  166.4172 C.ar    1  UNL1        0.0077
     17 C         142.5518  143.2226  170.6476 C.3     1  UNL1        0.0978
     18 C         141.4233  142.3376  170.2080 C.ar    1  UNL1        0.2371
     19 N         141.3063  141.6528  168.8786 N.ar    1  UNL1       -0.1907
     20 C         140.0244  140.8739  168.8697 C.ar    1  UNL1        0.2033
     21 N         139.3492  141.0774  170.1935 N.ar    1  UNL1       -0.0560
     22 O         140.2137  141.9820  171.0207 O.2     1  UNL1       -0.3370
     23 C         142.9407  138.1843  157.6508 C.3     1  UNL1        0.0173
     24 C         142.3274  137.5012  156.4646 C.3     1  UNL1        0.0721
     25 N         142.3494  136.0046  156.3667 N.3     1  UNL1       -0.2721
     26 C         141.3919  135.4028  155.3810 C.3     1  UNL1        0.0768
     27 C         141.1746  133.9553  155.0526 C.3     1  UNL1        0.0433
     28 C         141.8608  132.7524  155.6286 C.ar    1  UNL1       -0.0246
     29 C         141.3432  131.4826  155.0204 C.ar    1  UNL1       -0.0032
     30 C         141.8987  130.1601  155.4589 C.ar    1  UNL1        0.0180
     31 C         142.9719  130.1073  156.5057 C.ar    1  UNL1        0.1054
     32 C         143.4895  131.3771  157.1139 C.ar    1  UNL1        0.0138
     33 C         142.9339  132.6996  156.6754 C.ar    1  UNL1       -0.0234
     34 C         143.5859  133.8368  157.4046 C.3     1  UNL1        0.0434
     35 C         143.3256  135.3076  157.2671 C.3     1  UNL1        0.0768
     36 S         143.5274  128.7848  156.9442 S.O2    1  UNL1        0.0104
     37 C         144.0830  127.4622  157.3827 C.3     1  UNL1        0.1816
     38 O         143.5566  128.3238  155.5171 O.2     1  UNL1       -0.1686
     39 O         143.4983  129.2457  158.3713 O.2     1  UNL1       -0.1686
@<TRIPOS>BOND
     1    17    18    1
     2    18    19   ar
     3    19    20   ar
     4    20    11    1
     5    11    12   ar
     6    12    13   ar
     7    13    14   ar
     8    14    15   ar
     9    15     7    1
    10     7     8    2
    11     7     9   am
    12     1     9    1
    13     1     2    1
    14     2     3    1
    15     3     4    1
    16     4    23    1
    17    23    24    1
    18    24    25    1
    19    25    26    1
    20    26    27    1
    21    27    28    1
    22    28    29   ar
    23    29    30   ar
    24    30    31   ar
    25    31    36    1
    26    36    37    1
    27    36    38    2
    28    36    39    2
    29    31    32   ar
    30    32    33   ar
    31    33    34    1
    32    34    35    1
    33     4     5    1
    34     5     6    1
    35    15    16   ar
    36    20    21   ar
    37    21    22   ar
    38    22    18   ar
    39    16    11   ar
    40     6     1    1
    41    35    25    1
    42    33    28   ar
    43     9    10    1
@<TRIPOS>MOLECULE
*****
 39 43 0 0 0
SMALL
GASTEIGER

@<TRIPOS>ATOM
      1 C         141.0430  139.0257  160.9544 C.3     1  UNL1        0.0719
      2 C         142.5076  138.8915  160.6595 C.3     1  UNL1        0.0196
      3 C         142.9631  138.5026  159.2843 C.3     1  UNL1        0.0017
      4 C         141.9541  138.2479  158.2040 C.3     1  UNL1        0.0015
      5 C         140.4896  138.3821  158.4989 C.3     1  UNL1        0.0017
      6 C         140.0341  138.7710  159.8742 C.3     1  UNL1        0.0196
      7 C         140.4720  138.3741  163.4038 C.2     1  UNL1        0.2458
      8 O         140.8123  136.9445  163.1029 O.2     1  UNL1       -0.2701
      9 N         140.5874  139.4146  162.3296 N.am    1  UNL1       -0.3025
     10 H         140.3640  140.3528  162.5272 H       1  UNL1        0.1497
     11 C         140.5512  139.6723  167.1533 C.ar    1  UNL1        0.0392
     12 C         139.1050  139.5410  167.5293 C.ar    1  UNL1        0.0032
     13 C         138.1145  139.0208  166.5302 C.ar    1  UNL1        0.0002
     14 C         138.5702  138.6318  165.1550 C.ar    1  UNL1        0.0045
     15 C         140.0164  138.7630  164.7789 C.ar    1  UNL1        0.0535
     16 C         141.0069  139.2833  165.7781 C.ar    1  UNL1        0.0077
     17 C         143.2805  142.9229  170.2941 C.3     1  UNL1        0.0978
     18 C         142.7962  141.6867  169.5960 C.ar    1  UNL1        0.2371
     19 N         141.6876  141.6205  168.5879 N.ar    1  UNL1       -0.1907
     20 C         141.5417  140.1925  168.1524 C.ar    1  UNL1        0.2033
     21 N         142.5602  139.3762  168.8914 N.ar    1  UNL1       -0.0560
     22 O         143.3356  140.2997  169.7837 O.2     1  UNL1       -0.3370
     23 C         142.4098  137.8590  156.8288 C.3     1  UNL1        0.0173
     24 C         141.6608  136.8122  156.0587 C.3     1  UNL1        0.0721
     25 N         142.0496  135.3687  156.1818 N.3     1  UNL1       -0.2721
     26 C         143.1730  135.0761  157.1318 C.3     1  UNL1        0.0768
     27 C         143.7879  133.7511  157.4734 C.3     1  UNL1        0.0433
     28 C         143.4313  132.3918  156.9493 C.ar    1  UNL1       -0.0246
     29 C         144.2979  131.3268  157.5535 C.ar    1  UNL1       -0.0032
     30 C         144.1049  129.8916  157.1627 C.ar    1  UNL1        0.0180
     31 C         143.0453  129.5211  156.1677 C.ar    1  UNL1        0.1054
     32 C         142.1787  130.5861  155.5634 C.ar    1  UNL1        0.0138
     33 C         142.3717  132.0213  155.9543 C.ar    1  UNL1       -0.0234
     34 C         141.4071  132.9190  155.2375 C.3     1  UNL1        0.0434
     35 C         141.2638  134.4087  155.3389 C.3     1  UNL1        0.0768
     36 S         142.8522  128.0859  155.7769 S.O2    1  UNL1        0.0104
     37 C         142.6592  126.6506  155.3860 C.3     1  UNL1        0.1816
     38 O         141.6333  128.4644  154.9889 O.2     1  UNL1       -0.1686
     39 O         144.0712  127.7074  156.5648 O.2     1  UNL1       -0.1686
@<TRIPOS>BOND
     1    17    18    1
     2    18    19   ar
     3    19    20   ar
     4    20    11    1
     5    11    12   ar
     6    12    13   ar
     7    13    14   ar
     8    14    15   ar
     9    15     7    1
    10     7     8    2
    11     7     9   am
    12     1     9    1
    13     1     2    1
    14     2     3    1
    15     3     4    1
    16     4    23    1
    17    23    24    1
    18    24    25    1
    19    25    26    1
    20    26    27    1
    21    27    28    1
    22    28    29   ar
    23    29    30   ar
    24    30    31   ar
    25    31    36    1
    26    36    37    1
    27    36    38    2
    28    36    39    2
    29    31    32   ar
    30    32    33   ar
    31    33    34    1
    32    34    35    1
    33     4     5    1
    34     5     6    1
    35    15    16   ar
    36    20    21   ar
    37    21    22   ar
    38    22    18   ar
    39    16    11   ar
    40     6     1    1
    41    35    25    1
    42    33    28   ar
    43     9    10    1
@<TRIPOS>MOLECULE
*****
 39 43 0 0 0
SMALL
GASTEIGER

@<TRIPOS>ATOM
      1 C         141.1312  138.2068  162.0154 C.3     1  UNL1        0.0719
      2 C         140.2717  138.4223  160.8052 C.3     1  UNL1        0.0196
      3 C         140.8891  138.4284  159.4382 C.3     1  UNL1        0.0017
      4 C         142.3661  138.2190  159.2814 C.3     1  UNL1        0.0015
      5 C         143.2257  138.0036  160.4916 C.3     1  UNL1        0.0017
      6 C         142.6082  137.9975  161.8586 C.3     1  UNL1        0.0196
      7 C         140.2442  139.4958  164.0895 C.2     1  UNL1        0.2458
      8 O         140.5920  140.7971  163.4295 O.2     1  UNL1       -0.2701
      9 N         140.5138  138.2007  163.3824 N.am    1  UNL1       -0.3025
     10 H         140.2856  137.3466  163.8156 H       1  UNL1        0.1497
     11 C         139.6015  140.3217  167.9176 C.ar    1  UNL1        0.0392
     12 C         138.3921  139.4773  168.1906 C.ar    1  UNL1        0.0032
     13 C         137.8001  138.6391  167.0966 C.ar    1  UNL1        0.0002
     14 C         138.4175  138.6453  165.7295 C.ar    1  UNL1        0.0045
     15 C         139.6269  139.4896  165.4565 C.ar    1  UNL1        0.0535
     16 C         140.2189  140.3279  166.5506 C.ar    1  UNL1        0.0077
     17 C         142.9647  143.2707  170.7234 C.3     1  UNL1        0.0978
     18 C         141.7394  142.5154  170.3014 C.ar    1  UNL1        0.2371
     19 N         141.5688  141.7588  169.0175 N.ar    1  UNL1       -0.1907
     20 C         140.1935  141.1599  169.0117 C.ar    1  UNL1        0.2033
     21 N         139.5143  141.5463  170.2920 N.ar    1  UNL1       -0.0560
     22 O         140.4697  142.3841  171.0891 O.2     1  UNL1       -0.3370
     23 C         142.9836  138.2251  157.9143 C.3     1  UNL1        0.0173
     24 C         142.2521  137.6098  156.7583 C.3     1  UNL1        0.0721
     25 N         142.2696  136.1223  156.5657 N.3     1  UNL1       -0.2721
     26 C         143.2350  135.3657  157.4293 C.3     1  UNL1        0.0768
     27 C         143.4886  133.8879  157.4755 C.3     1  UNL1        0.0433
     28 C         142.8397  132.8021  156.6696 C.ar    1  UNL1       -0.0246
     29 C         143.3864  131.4520  157.0285 C.ar    1  UNL1       -0.0032
     30 C         142.8701  130.2256  156.3362 C.ar    1  UNL1        0.0180
     31 C         141.8072  130.3490  155.2850 C.ar    1  UNL1        0.1054
     32 C         141.2605  131.6990  154.9262 C.ar    1  UNL1        0.0138
     33 C         141.7767  132.9255  155.6185 C.ar    1  UNL1       -0.0234
     34 C         141.1003  134.1654  155.1136 C.3     1  UNL1        0.0434
     35 C         141.3197  135.5882  155.5352 C.3     1  UNL1        0.0768
     36 S         141.2909  129.1226  154.5927 S.O2    1  UNL1        0.0104
     37 C         140.7747  127.8961  153.9004 C.3     1  UNL1        0.1816
     38 O         142.5410  128.3839  154.9691 O.2     1  UNL1       -0.1686
     39 O         140.0409  129.8612  154.2163 O.2     1  UNL1       -0.1686
@<TRIPOS>BOND
     1    17    18    1
     2    18    19   ar
     3    19    20   ar
     4    20    11    1
     5    11    12   ar
     6    12    13   ar
     7    13    14   ar
     8    14    15   ar
     9    15     7    1
    10     7     8    2
    11     7     9   am
    12     1     9    1
    13     1     2    1
    14     2     3    1
    15     3     4    1
    16     4    23    1
    17    23    24    1
    18    24    25    1
    19    25    26    1
    20    26    27    1
    21    27    28    1
    22    28    29   ar
    23    29    30   ar
    24    30    31   ar
    25    31    36    1
    26    36    37    1
    27    36    38    2
    28    36    39    2
    29    31    32   ar
    30    32    33   ar
    31    33    34    1
    32    34    35    1
    33     4     5    1
    34     5     6    1
    35    15    16   ar
    36    20    21   ar
    37    21    22   ar
    38    22    18   ar
    39    16    11   ar
    40     6     1    1
    41    35    25    1
    42    33    28   ar
    43     9    10    1
@<TRIPOS>MOLECULE
*****
 39 43 0 0 0
SMALL
GASTEIGER

@<TRIPOS>ATOM
      1 C         140.3491  145.4791  157.4638 C.3     1  UNL1        0.0719
      2 C         140.1303  144.1069  156.8990 C.3     1  UNL1        0.0196
      3 C         139.9337  142.9394  157.8198 C.3     1  UNL1        0.0017
      4 C         139.9560  143.1440  159.3056 C.3     1  UNL1        0.0015
      5 C         140.1748  144.5162  159.8705 C.3     1  UNL1        0.0017
      6 C         140.3714  145.6837  158.9496 C.3     1  UNL1        0.0196
      7 C         139.4766  147.0123  155.5563 C.2     1  UNL1        0.2458
      8 O         138.2108  146.2101  155.4906 O.2     1  UNL1       -0.2701
      9 N         140.5457  146.6468  156.5429 N.am    1  UNL1       -0.3025
     10 H         141.3764  147.1733  156.5861 H       1  UNL1        0.1497
     11 C         139.3994  150.7121  154.1229 C.ar    1  UNL1        0.0392
     12 C         140.0665  150.5152  152.7939 C.ar    1  UNL1        0.0032
     13 C         140.5369  149.1507  152.3857 C.ar    1  UNL1        0.0002
     14 C         140.3403  147.9830  153.3065 C.ar    1  UNL1        0.0045
     15 C         139.6732  148.1799  154.6355 C.ar    1  UNL1        0.0535
     16 C         139.2028  149.5445  155.0438 C.ar    1  UNL1        0.0077
     17 C         137.2553  155.5354  153.9816 C.3     1  UNL1        0.0978
     18 C         137.9434  154.2937  154.4662 C.ar    1  UNL1        0.2371
     19 N         138.2291  153.0683  153.6496 N.ar    1  UNL1       -0.1907
     20 C         138.9290  152.0768  154.5311 C.ar    1  UNL1        0.2033
     21 N         139.0757  152.6893  155.8924 N.ar    1  UNL1       -0.0560
     22 O         138.4666  154.0595  155.8523 O.2     1  UNL1       -0.3370
     23 C         139.7595  141.9763  160.2266 C.3     1  UNL1        0.0173
     24 C         138.6021  141.9601  161.1806 C.3     1  UNL1        0.0721
     25 N         138.8330  141.6753  162.6351 N.3     1  UNL1       -0.2721
     26 C         138.2631  140.3843  163.1439 C.3     1  UNL1        0.0768
     27 C         138.3227  139.8183  164.5318 C.3     1  UNL1        0.0433
     28 C         138.9668  140.4033  165.7534 C.ar    1  UNL1       -0.0246
     29 C         138.7949  139.5087  166.9452 C.ar    1  UNL1       -0.0032
     30 C         139.3667  139.9098  168.2727 C.ar    1  UNL1        0.0180
     31 C         140.1104  141.2053  168.4085 C.ar    1  UNL1        0.1054
     32 C         140.2823  142.0999  167.2167 C.ar    1  UNL1        0.0138
     33 C         139.7106  141.6988  165.8892 C.ar    1  UNL1       -0.0234
     34 C         139.9938  142.7294  164.8367 C.3     1  UNL1        0.0434
     35 C         139.6032  142.7188  163.3885 C.3     1  UNL1        0.0768
     36 S         140.6822  141.6064  169.7360 S.O2    1  UNL1        0.0104
     37 C         141.2540  142.0074  171.0635 C.3     1  UNL1        0.1816
     38 O         139.3619  141.3246  170.3898 O.2     1  UNL1       -0.1686
     39 O         142.0025  141.8881  169.0822 O.2     1  UNL1       -0.1686
@<TRIPOS>BOND
     1    17    18    1
     2    18    19   ar
     3    19    20   ar
     4    20    11    1
     5    11    12   ar
     6    12    13   ar
     7    13    14   ar
     8    14    15   ar
     9    15     7    1
    10     7     8    2
    11     7     9   am
    12     1     9    1
    13     1     2    1
    14     2     3    1
    15     3     4    1
    16     4    23    1
    17    23    24    1
    18    24    25    1
    19    25    26    1
    20    26    27    1
    21    27    28    1
    22    28    29   ar
    23    29    30   ar
    24    30    31   ar
    25    31    36    1
    26    36    37    1
    27    36    38    2
    28    36    39    2
    29    31    32   ar
    30    32    33   ar
    31    33    34    1
    32    34    35    1
    33     4     5    1
    34     5     6    1
    35    15    16   ar
    36    20    21   ar
    37    21    22   ar
    38    22    18   ar
    39    16    11   ar
    40     6     1    1
    41    35    25    1
    42    33    28   ar
    43     9    10    1
@<TRIPOS>MOLECULE
*****
 39 43 0 0 0
SMALL
GASTEIGER

@<TRIPOS>ATOM
      1 C         142.6523  138.6879  158.1412 C.3     1  UNL1        0.0719
      2 C         142.1715  139.9060  157.4099 C.3     1  UNL1        0.0196
      3 C         142.3937  141.2689  157.9956 C.3     1  UNL1        0.0017
      4 C         143.0967  141.4136  159.3127 C.3     1  UNL1        0.0015
      5 C         143.5775  140.1955  160.0441 C.3     1  UNL1        0.0017
      6 C         143.3553  138.8326  159.4583 C.3     1  UNL1        0.0196
      7 C         143.3370  136.8161  156.4746 C.2     1  UNL1        0.2458
      8 O         144.4661  137.6702  155.9792 O.2     1  UNL1       -0.2701
      9 N         142.4301  137.3249  157.5555 N.am    1  UNL1       -0.3025
     10 H         141.6890  136.7643  157.8807 H       1  UNL1        0.1497
     11 C         143.2752  132.8673  156.0832 C.ar    1  UNL1        0.0392
     12 C         142.6702  132.7272  154.7178 C.ar    1  UNL1        0.0032
     13 C         142.2875  133.9500  153.9380 C.ar    1  UNL1        0.0002
     14 C         142.5097  135.3131  154.5236 C.ar    1  UNL1        0.0045
     15 C         143.1147  135.4531  155.8890 C.ar    1  UNL1        0.0535
     16 C         143.4975  134.2302  156.6688 C.ar    1  UNL1        0.0077
     17 C         143.3221  127.9523  158.0123 C.3     1  UNL1        0.0978
     18 C         143.6795  129.3853  157.7497 C.ar    1  UNL1        0.2371
     19 N         142.9648  130.3150  156.8144 N.ar    1  UNL1       -0.1907
     20 C         143.6580  131.6444  156.8630 C.ar    1  UNL1        0.2033
     21 N         144.8010  131.5362  157.8282 N.ar    1  UNL1       -0.0560
     22 O         144.8143  130.1399  158.3763 O.2     1  UNL1       -0.3370
     23 C         143.3190  142.7766  159.8984 C.3     1  UNL1        0.0173
     24 C         144.1746  142.9376  161.1198 C.3     1  UNL1        0.0721
     25 N         143.5559  142.8625  162.4842 N.3     1  UNL1       -0.2721
     26 C         142.0828  143.1385  162.5468 C.3     1  UNL1        0.0768
     27 C         141.1820  143.1415  163.7463 C.3     1  UNL1        0.0433
     28 C         141.5318  142.8692  165.1792 C.ar    1  UNL1       -0.0246
     29 C         140.3274  142.9754  166.0671 C.ar    1  UNL1       -0.0032
     30 C         140.4601  142.7392  167.5424 C.ar    1  UNL1        0.0180
     31 C         141.7970  142.3967  168.1300 C.ar    1  UNL1        0.1054
     32 C         143.0014  142.2905  167.2421 C.ar    1  UNL1        0.0138
     33 C         142.8688  142.5268  165.7668 C.ar    1  UNL1       -0.0234
     34 C         144.1862  142.3719  165.0664 C.3     1  UNL1        0.0434
     35 C         144.4919  142.5214  163.6055 C.3     1  UNL1        0.0768
     36 S         141.9297  142.1604  169.6053 S.O2    1  UNL1        0.0104
     37 C         142.0623  141.9241  171.0806 C.3     1  UNL1        0.1816
     38 O         140.6296  141.4121  169.6023 O.2     1  UNL1       -0.1686
     39 O         143.2297  142.9087  169.6083 O.2     1  UNL1       -0.1686
@<TRIPOS>BOND
     1    17    18    1
     2    18    19   ar
     3    19    20   ar
     4    20    11    1
     5    11    12   ar
     6    12    13   ar
     7    13    14   ar
     8    14    15   ar
     9    15     7    1
    10     7     8    2
    11     7     9   am
    12     1     9    1
    13     1     2    1
    14     2     3    1
    15     3     4    1
    16     4    23    1
    17    23    24    1
    18    24    25    1
    19    25    26    1
    20    26    27    1
    21    27    28    1
    22    28    29   ar
    23    29    30   ar
    24    30    31   ar
    25    31    36    1
    26    36    37    1
    27    36    38    2
    28    36    39    2
    29    31    32   ar
    30    32    33   ar
    31    33    34    1
    32    34    35    1
    33     4     5    1
    34     5     6    1
    35    15    16   ar
    36    20    21   ar
    37    21    22   ar
    38    22    18   ar
    39    16    11   ar
    40     6     1    1
    41    35    25    1
    42    33    28   ar
    43     9    10    1
@<TRIPOS>MOLECULE
*****
 39 43 0 0 0
SMALL
GASTEIGER

@<TRIPOS>ATOM
      1 C         139.8971  138.8577  158.1435 C.3     1  UNL1        0.0719
      2 C         141.2467  138.5866  157.5477 C.3     1  UNL1        0.0196
      3 C         142.4020  138.2340  158.4370 C.3     1  UNL1        0.0017
      4 C         142.2077  138.1525  159.9221 C.3     1  UNL1        0.0015
      5 C         140.8581  138.4236  160.5179 C.3     1  UNL1        0.0017
      6 C         139.7028  138.7762  159.6286 C.3     1  UNL1        0.0196
      7 C         138.4684  140.6452  156.9131 C.2     1  UNL1        0.2458
      8 O         139.3505  141.7275  157.4611 O.2     1  UNL1       -0.2701
      9 N         138.7417  139.2104  157.2543 N.am    1  UNL1       -0.3025
     10 H         138.1627  138.5000  156.8945 H       1  UNL1        0.1497
     11 C         134.7566  141.0260  155.5613 C.ar    1  UNL1        0.0392
     12 C         135.0021  141.7029  154.2454 C.ar    1  UNL1        0.0032
     13 C         136.4031  142.0272  153.8187 C.ar    1  UNL1        0.0002
     14 C         137.5586  141.6746  154.7080 C.ar    1  UNL1        0.0045
     15 C         137.3130  140.9977  156.0239 C.ar    1  UNL1        0.0535
     16 C         135.9119  140.6734  156.4505 C.ar    1  UNL1        0.0077
     17 C         130.6417  138.8207  158.0281 C.3     1  UNL1        0.0978
     18 C         131.4642  139.6880  157.1218 C.ar    1  UNL1        0.2371
     19 N         132.9600  139.6784  157.0110 N.ar    1  UNL1       -0.1907
     20 C         133.3555  140.7016  155.9879 C.ar    1  UNL1        0.2033
     21 N         132.1042  141.3435  155.4665 N.ar    1  UNL1       -0.0560
     22 O         130.9352  140.7170  156.1673 O.2     1  UNL1       -0.3370
     23 C         143.3631  137.7999  160.8114 C.3     1  UNL1        0.0173
     24 C         144.2409  138.8827  161.3653 C.3     1  UNL1        0.0721
     25 N         143.9507  139.4658  162.7165 N.3     1  UNL1       -0.2721
     26 C         144.2735  140.9216  162.8799 C.3     1  UNL1        0.0768
     27 C         144.1013  141.7873  164.0928 C.3     1  UNL1        0.0433
     28 C         143.5639  141.4110  165.4416 C.ar    1  UNL1       -0.0246
     29 C         143.5615  142.5836  166.3772 C.ar    1  UNL1       -0.0032
     30 C         143.0611  142.4212  167.7819 C.ar    1  UNL1        0.0180
     31 C         142.5631  141.0864  168.2512 C.ar    1  UNL1        0.1054
     32 C         142.5654  139.9138  167.3156 C.ar    1  UNL1        0.0138
     33 C         143.0658  140.0762  165.9109 C.ar    1  UNL1       -0.0234
     34 C         142.9822  138.7879  165.1471 C.3     1  UNL1        0.0434
     35 C         143.3761  138.5164  163.7254 C.3     1  UNL1        0.0768
     36 S         142.0627  140.9241  169.6559 S.O2    1  UNL1        0.0104
     37 C         141.5623  140.7617  171.0606 C.3     1  UNL1        0.1816
     38 O         143.1217  139.8936  169.9141 O.2     1  UNL1       -0.1686
     39 O         141.0037  141.9545  169.3978 O.2     1  UNL1       -0.1686
@<TRIPOS>BOND
     1    17    18    1
     2    18    19   ar
     3    19    20   ar
     4    20    11    1
     5    11    12   ar
     6    12    13   ar
     7    13    14   ar
     8    14    15   ar
     9    15     7    1
    10     7     8    2
    11     7     9   am
    12     1     9    1
    13     1     2    1
    14     2     3    1
    15     3     4    1
    16     4    23    1
    17    23    24    1
    18    24    25    1
    19    25    26    1
    20    26    27    1
    21    27    28    1
    22    28    29   ar
    23    29    30   ar
    24    30    31   ar
    25    31    36    1
    26    36    37    1
    27    36    38    2
    28    36    39    2
    29    31    32   ar
    30    32    33   ar
    31    33    34    1
    32    34    35    1
    33     4     5    1
    34     5     6    1
    35    15    16   ar
    36    20    21   ar
    37    21    22   ar
    38    22    18   ar
    39    16    11   ar
    40     6     1    1
    41    35    25    1
    42    33    28   ar
    43     9    10    1
@<TRIPOS>MOLECULE
*****
 39 43 0 0 0
SMALL
GASTEIGER

@<TRIPOS>ATOM
      1 C         139.8617  138.5521  157.7941 C.3     1  UNL1        0.0719
      2 C         139.6429  138.3744  159.2673 C.3     1  UNL1        0.0196
      3 C         139.4637  139.5744  160.1491 C.3     1  UNL1        0.0017
      4 C         139.5032  140.9523  159.5577 C.3     1  UNL1        0.0015
      5 C         139.7220  141.1301  158.0844 C.3     1  UNL1        0.0017
      6 C         139.9012  139.9300  157.2027 C.3     1  UNL1        0.0196
      7 C         141.4202  136.8763  156.5641 C.2     1  UNL1        0.2458
      8 O         142.6203  137.6007  157.0978 O.2     1  UNL1       -0.2701
      9 N         140.0410  137.3520  156.9122 N.am    1  UNL1       -0.3025
     10 H         139.2533  136.8766  156.5619 H       1  UNL1        0.1497
     11 C         142.5421  133.2856  155.2999 C.ar    1  UNL1        0.0392
     12 C         141.9577  133.2761  153.9184 C.ar    1  UNL1        0.0032
     13 C         141.1942  134.4667  153.4188 C.ar    1  UNL1        0.0002
     14 C         141.0150  135.6668  154.3007 C.ar    1  UNL1        0.0045
     15 C         141.5994  135.6763  155.6822 C.ar    1  UNL1        0.0535
     16 C         142.3629  134.4857  156.1818 C.ar    1  UNL1        0.0077
     17 C         144.5265  129.5648  158.4776 C.3     1  UNL1        0.0978
     18 C         144.2178  130.3848  157.2601 C.ar    1  UNL1        0.2371
     19 N         143.3292  131.5923  157.2126 N.ar    1  UNL1       -0.1907
     20 C         143.3056  132.0950  155.7995 C.ar    1  UNL1        0.2033
     21 N         144.1796  131.1982  154.9738 N.ar    1  UNL1       -0.0560
     22 O         144.7433  130.1412  155.8765 O.2     1  UNL1       -0.3370
     23 C         139.3240  142.1525  160.4395 C.3     1  UNL1        0.0173
     24 C         138.2516  142.1591  161.4883 C.3     1  UNL1        0.0721
     25 N         138.5950  141.8449  162.9142 N.3     1  UNL1       -0.2721
     26 C         138.0607  140.5460  163.4412 C.3     1  UNL1        0.0768
     27 C         138.2268  139.9525  164.8089 C.3     1  UNL1        0.0433
     28 C         138.9680  140.5112  165.9870 C.ar    1  UNL1       -0.0246
     29 C         138.8863  139.5939  167.1711 C.ar    1  UNL1       -0.0032
     30 C         139.5628  139.9668  168.4569 C.ar    1  UNL1        0.0180
     31 C         140.3212  141.2570  168.5586 C.ar    1  UNL1        0.1054
     32 C         140.4030  142.1743  167.3745 C.ar    1  UNL1        0.0138
     33 C         139.7264  141.8014  166.0888 C.ar    1  UNL1       -0.0234
     34 C         139.9308  142.8515  165.0374 C.3     1  UNL1        0.0434
     35 C         139.4272  142.8708  163.6245 C.3     1  UNL1        0.0768
     36 S         140.9978  141.6299  169.8444 S.O2    1  UNL1        0.0104
     37 C         141.6744  142.0028  171.1301 C.3     1  UNL1        0.1816
     38 O         139.6591  141.8213  170.4933 O.2     1  UNL1       -0.1686
     39 O         142.3365  141.4385  169.1954 O.2     1  UNL1       -0.1686
@<TRIPOS>BOND
     1    17    18    1
     2    18    19   ar
     3    19    20   ar
     4    20    11    1
     5    11    12   ar
     6    12    13   ar
     7    13    14   ar
     8    14    15   ar
     9    15     7    1
    10     7     8    2
    11     7     9   am
    12     1     9    1
    13     1     2    1
    14     2     3    1
    15     3     4    1
    16     4    23    1
    17    23    24    1
    18    24    25    1
    19    25    26    1
    20    26    27    1
    21    27    28    1
    22    28    29   ar
    23    29    30   ar
    24    30    31   ar
    25    31    36    1
    26    36    37    1
    27    36    38    2
    28    36    39    2
    29    31    32   ar
    30    32    33   ar
    31    33    34    1
    32    34    35    1
    33     4     5    1
    34     5     6    1
    35    15    16   ar
    36    20    21   ar
    37    21    22   ar
    38    22    18   ar
    39    16    11   ar
    40     6     1    1
    41    35    25    1
    42    33    28   ar
    43     9    10    1
@<TRIPOS>MOLECULE
*****
 39 43 0 0 0
SMALL
GASTEIGER

@<TRIPOS>ATOM
      1 C         139.2545  139.6679  158.2918 C.3     1  UNL1        0.0719
      2 C         139.5615  140.5060  159.4972 C.3     1  UNL1        0.0196
      3 C         140.8123  140.2553  160.2863 C.3     1  UNL1        0.0017
      4 C         141.7561  139.1663  159.8699 C.3     1  UNL1        0.0015
      5 C         141.4491  138.3281  158.6644 C.3     1  UNL1        0.0017
      6 C         140.1983  138.5790  157.8754 C.3     1  UNL1        0.0196
      7 C         138.0681  140.6970  156.2221 C.2     1  UNL1        0.2458
      8 O         139.3834  141.2247  155.7306 O.2     1  UNL1       -0.2701
      9 N         138.0037  139.9187  157.5027 N.am    1  UNL1       -0.3025
     10 H         137.1405  139.5723  157.8253 H       1  UNL1        0.1497
     11 C         134.2262  140.9037  155.2494 C.ar    1  UNL1        0.0392
     12 C         134.3157  141.4491  153.8549 C.ar    1  UNL1        0.0032
     13 C         135.6561  141.7438  153.2495 C.ar    1  UNL1        0.0002
     14 C         136.9070  141.4931  154.0386 C.ar    1  UNL1        0.0045
     15 C         136.8174  140.9477  155.4331 C.ar    1  UNL1        0.0535
     16 C         135.4769  140.6530  156.0385 C.ar    1  UNL1        0.0077
     17 C         130.4103  138.7462  158.1931 C.3     1  UNL1        0.0978
     18 C         131.1318  139.6173  157.2079 C.ar    1  UNL1        0.2371
     19 N         132.5973  139.5650  156.8925 N.ar    1  UNL1       -0.1907
     20 C         132.8857  140.6090  155.8548 C.ar    1  UNL1        0.2033
     21 N         131.5985  141.3065  155.5288 N.ar    1  UNL1       -0.0560
     22 O         130.5144  140.6936  156.3651 O.2     1  UNL1       -0.3370
     23 C         143.0069  138.9155  160.6590 C.3     1  UNL1        0.0173
     24 C         142.9855  137.9597  161.8148 C.3     1  UNL1        0.0721
     25 N         142.3841  138.3787  163.1235 N.3     1  UNL1       -0.2721
     26 C         140.8893  138.2888  163.2113 C.3     1  UNL1        0.0768
     27 C         139.9982  138.6302  164.3687 C.3     1  UNL1        0.0433
     28 C         140.3818  139.1457  165.7239 C.ar    1  UNL1       -0.0246
     29 C         139.1762  139.3578  166.5910 C.ar    1  UNL1       -0.0032
     30 C         139.3400  139.8714  167.9907 C.ar    1  UNL1        0.0180
     31 C         140.7093  140.1730  168.5236 C.ar    1  UNL1        0.1054
     32 C         141.9149  139.9609  167.6566 C.ar    1  UNL1        0.0138
     33 C         141.7511  139.4473  166.2568 C.ar    1  UNL1       -0.0234
     34 C         143.0752  139.3077  165.5658 C.3     1  UNL1        0.0434
     35 C         143.3568  138.8321  164.1714 C.3     1  UNL1        0.0768
     36 S         140.8731  140.6866  169.9233 S.O2    1  UNL1        0.0104
     37 C         141.0369  141.2002  171.3231 C.3     1  UNL1        0.1816
     38 O         141.6822  141.8388  169.4059 O.2     1  UNL1       -0.1686
     39 O         140.0640  139.5344  170.4408 O.2     1  UNL1       -0.1686
@<TRIPOS>BOND
     1    17    18    1
     2    18    19   ar
     3    19    20   ar
     4    20    11    1
     5    11    12   ar
     6    12    13   ar
     7    13    14   ar
     8    14    15   ar
     9    15     7    1
    10     7     8    2
    11     7     9   am
    12     1     9    1
    13     1     2    1
    14     2     3    1
    15     3     4    1
    16     4    23    1
    17    23    24    1
    18    24    25    1
    19    25    26    1
    20    26    27    1
    21    27    28    1
    22    28    29   ar
    23    29    30   ar
    24    30    31   ar
    25    31    36    1
    26    36    37    1
    27    36    38    2
    28    36    39    2
    29    31    32   ar
    30    32    33   ar
    31    33    34    1
    32    34    35    1
    33     4     5    1
    34     5     6    1
    35    15    16   ar
    36    20    21   ar
    37    21    22   ar
    38    22    18   ar
    39    16    11   ar
    40     6     1    1
    41    35    25    1
    42    33    28   ar
    43     9    10    1
@<TRIPOS>MOLECULE
*****
 39 43 0 0 0
SMALL
GASTEIGER

@<TRIPOS>ATOM
      1 C         139.3043  142.4060  158.4573 C.3     1  UNL1        0.0719
      2 C         139.1382  140.9947  157.9775 C.3     1  UNL1        0.0196
      3 C         138.5737  139.9518  158.8960 C.3     1  UNL1        0.0017
      4 C         138.1754  140.3202  160.2943 C.3     1  UNL1        0.0015
      5 C         138.3414  141.7316  160.7743 C.3     1  UNL1        0.0017
      6 C         138.9059  142.7745  159.8557 C.3     1  UNL1        0.0196
      7 C         139.0275  144.0055  156.4287 C.2     1  UNL1        0.2458
      8 O         137.6216  143.5189  156.2369 O.2     1  UNL1       -0.2701
      9 N         139.8688  143.4490  157.5389 N.am    1  UNL1       -0.3025
     10 H         140.7915  143.7684  157.6648 H       1  UNL1        0.1497
     11 C         139.7240  147.5216  154.7252 C.ar    1  UNL1        0.0392
     12 C         140.7211  147.1345  153.6736 C.ar    1  UNL1        0.0032
     13 C         141.1536  145.7044  153.5402 C.ar    1  UNL1        0.0002
     14 C         140.5890  144.6614  154.4587 C.ar    1  UNL1        0.0045
     15 C         139.5920  145.0485  155.5104 C.ar    1  UNL1        0.0535
     16 C         139.1594  146.4786  155.6437 C.ar    1  UNL1        0.0077
     17 C         139.0580  152.6749  153.7869 C.3     1  UNL1        0.0978
     18 C         138.9854  151.3204  154.4272 C.ar    1  UNL1        0.2371
     19 N         139.6189  150.0642  153.9071 N.ar    1  UNL1       -0.1907
     20 C         139.2915  148.9517  154.8586 C.ar    1  UNL1        0.2033
     21 N         138.4556  149.5203  155.9666 N.ar    1  UNL1       -0.0560
     22 O         138.2664  150.9844  155.7001 O.2     1  UNL1       -0.3370
     23 C         137.6109  139.2772  161.2129 C.3     1  UNL1        0.0173
     24 C         138.5048  138.2153  161.7813 C.3     1  UNL1        0.0721
     25 N         139.2786  138.4803  163.0387 N.3     1  UNL1       -0.2721
     26 C         140.6904  137.9735  163.0530 C.3     1  UNL1        0.0768
     27 C         141.7106  138.0783  164.1478 C.3     1  UNL1        0.0433
     28 C         141.5709  138.7156  165.4983 C.ar    1  UNL1       -0.0246
     29 C         142.8382  138.6001  166.2925 C.ar    1  UNL1       -0.0032
     30 C         142.9112  139.1746  167.6762 C.ar    1  UNL1        0.0180
     31 C         141.7169  139.8646  168.2659 C.ar    1  UNL1        0.1054
     32 C         140.4496  139.9802  167.4716 C.ar    1  UNL1        0.0138
     33 C         140.3766  139.4057  166.0879 C.ar    1  UNL1       -0.0234
     34 C         139.0270  139.6288  165.4725 C.3     1  UNL1        0.0434
     35 C         138.5384  139.2169  164.1154 C.3     1  UNL1        0.0768
     36 S         141.7899  140.4391  169.6495 S.O2    1  UNL1        0.0104
     37 C         141.8629  141.0136  171.0332 C.3     1  UNL1        0.1816
     38 O         140.4628  141.1067  169.4424 O.2     1  UNL1       -0.1686
     39 O         143.1171  139.7714  169.8567 O.2     1  UNL1       -0.1686
@<TRIPOS>BOND
     1    17    18    1
     2    18    19   ar
     3    19    20   ar
     4    20    11    1
     5    11    12   ar
     6    12    13   ar
     7    13    14   ar
     8    14    15   ar
     9    15     7    1
    10     7     8    2
    11     7     9   am
    12     1     9    1
    13     1     2    1
    14     2     3    1
    15     3     4    1
    16     4    23    1
    17    23    24    1
    18    24    25    1
    19    25    26    1
    20    26    27    1
    21    27    28    1
    22    28    29   ar
    23    29    30   ar
    24    30    31   ar
    25    31    36    1
    26    36    37    1
    27    36    38    2
    28    36    39    2
    29    31    32   ar
    30    32    33   ar
    31    33    34    1
    32    34    35    1
    33     4     5    1
    34     5     6    1
    35    15    16   ar
    36    20    21   ar
    37    21    22   ar
    38    22    18   ar
    39    16    11   ar
    40     6     1    1
    41    35    25    1
    42    33    28   ar
    43     9    10    1
