@<TRIPOS>MOLECULE
*****
 16 17 0 0 0
SMALL
GASTEIGER

@<TRIPOS>ATOM
      1 C         140.3500  144.1393  169.9673 C.3     1  UNL1        0.0319
      2 C         141.1002  142.9324  169.4872 C.ar    1  UNL1       -0.0116
      3 C         140.4518  141.9788  168.5278 C.ar    1  UNL1       -0.0076
      4 C         141.2020  140.7720  168.0477 C.ar    1  UNL1       -0.0211
      5 C         142.6006  140.5186  168.5268 C.ar    1  UNL1       -0.0034
      6 C         143.2491  141.4722  169.4861 C.ar    1  UNL1        0.0108
      7 C         142.4989  142.6791  169.9663 C.ar    1  UNL1        0.0537
      8 CL        143.1473  143.6326  170.9256 Cl      1  UNL1       -0.0826
      9 C         140.5536  139.8184  167.0884 C.3     1  UNL1        0.0424
     10 C         139.0866  139.5838  167.2956 C.3     1  UNL1        0.0315
     11 C         138.1615  138.6983  166.5143 C.2     1  UNL1       -0.0289
     12 C         138.4751  137.8289  165.3330 C.2     1  UNL1       -0.0136
     13 C         139.7910  137.6300  164.6410 C.3     1  UNL1        0.0950
     14 N         141.1185  138.2516  164.9596 N.3     1  UNL1       -0.2935
     15 C         141.4578  139.2255  166.0488 C.3     1  UNL1        0.0735
     16 H         141.3919  138.7255  164.0988 H       1  UNL1        0.1236
@<TRIPOS>BOND
     1     1     2    1
     2     2     3   ar
     3     3     4   ar
     4     4     9    1
     5     9    10    1
     6    10    11    1
     7    11    12    2
     8    12    13    1
     9    13    14    1
    10    14    15    1
    11     4     5   ar
    12     5     6   ar
    13     6     7   ar
    14     7     8    1
    15     7     2   ar
    16    15     9    1
    17    14    16    1
@<TRIPOS>MOLECULE
*****
 16 17 0 0 0
SMALL
GASTEIGER

@<TRIPOS>ATOM
      1 C         141.0092  142.5846  170.6107 C.3     1  UNL1        0.0319
      2 C         141.4200  142.5245  169.1693 C.ar    1  UNL1       -0.0116
      3 C         140.3827  142.6143  168.0894 C.ar    1  UNL1       -0.0076
      4 C         140.7935  142.5542  166.6481 C.ar    1  UNL1       -0.0211
      5 C         142.2415  142.4043  166.2865 C.ar    1  UNL1       -0.0034
      6 C         143.2789  142.3146  167.3663 C.ar    1  UNL1        0.0108
      7 C         142.8680  142.3746  168.8078 C.ar    1  UNL1        0.0537
      8 CL        143.9052  142.2849  169.8876 Cl      1  UNL1       -0.0826
      9 C         139.7563  142.6439  165.5682 C.3     1  UNL1        0.0424
     10 C         139.6314  143.9787  164.8952 C.3     1  UNL1        0.0315
     11 C         138.7005  144.3863  163.7918 C.2     1  UNL1       -0.0289
     12 C         137.6647  143.5599  163.0891 C.2     1  UNL1       -0.0136
     13 C         137.3038  142.1217  163.3160 C.3     1  UNL1        0.0950
     14 N         137.8897  141.1548  164.3018 N.3     1  UNL1       -0.2935
     15 C         138.9812  141.3873  165.3041 C.3     1  UNL1        0.0735
     16 H         138.2283  140.3808  163.7302 H       1  UNL1        0.1236
@<TRIPOS>BOND
     1     1     2    1
     2     2     3   ar
     3     3     4   ar
     4     4     9    1
     5     9    10    1
     6    10    11    1
     7    11    12    2
     8    12    13    1
     9    13    14    1
    10    14    15    1
    11     4     5   ar
    12     5     6   ar
    13     6     7   ar
    14     7     8    1
    15     7     2   ar
    16    15     9    1
    17    14    16    1
@<TRIPOS>MOLECULE
*****
 16 17 0 0 0
SMALL
GASTEIGER

@<TRIPOS>ATOM
      1 C         140.3951  143.6445  169.8441 C.3     1  UNL1        0.0319
      2 C         140.6546  142.4257  169.0091 C.ar    1  UNL1       -0.0116
      3 C         141.7160  142.4545  167.9495 C.ar    1  UNL1       -0.0076
      4 C         141.9755  141.2357  167.1146 C.ar    1  UNL1       -0.0211
      5 C         141.1736  139.9881  167.3392 C.ar    1  UNL1       -0.0034
      6 C         140.1122  139.9593  168.3987 C.ar    1  UNL1        0.0108
      7 C         139.8527  141.1781  169.2337 C.ar    1  UNL1        0.0537
      8 CL        138.7914  141.1493  170.2932 Cl      1  UNL1       -0.0826
      9 C         143.0369  141.2645  166.0550 C.3     1  UNL1        0.0424
     10 C         143.6175  142.6140  165.7521 C.3     1  UNL1        0.0315
     11 C         144.6820  142.9723  164.7577 C.2     1  UNL1       -0.0289
     12 C         145.4286  142.0696  163.8209 C.2     1  UNL1       -0.0136
     13 C         145.2952  140.5857  163.6469 C.3     1  UNL1        0.0950
     14 N         144.3823  139.6380  164.3668 N.3     1  UNL1       -0.2935
     15 C         143.3772  139.9402  165.4386 C.3     1  UNL1        0.0735
     16 H         145.0078  138.9519  164.7892 H       1  UNL1        0.1236
@<TRIPOS>BOND
     1     1     2    1
     2     2     3   ar
     3     3     4   ar
     4     4     9    1
     5     9    10    1
     6    10    11    1
     7    11    12    2
     8    12    13    1
     9    13    14    1
    10    14    15    1
    11     4     5   ar
    12     5     6   ar
    13     6     7   ar
    14     7     8    1
    15     7     2   ar
    16    15     9    1
    17    14    16    1
@<TRIPOS>MOLECULE
*****
 16 17 0 0 0
SMALL
GASTEIGER

@<TRIPOS>ATOM
      1 C         139.1726  140.4595  170.0536 C.3     1  UNL1        0.0319
      2 C         140.0057  140.1196  168.8535 C.ar    1  UNL1       -0.0116
      3 C         139.3503  139.9087  167.5208 C.ar    1  UNL1       -0.0076
      4 C         140.1834  139.5687  166.3207 C.ar    1  UNL1       -0.0211
      5 C         141.6720  139.4397  166.4532 C.ar    1  UNL1       -0.0034
      6 C         142.3274  139.6506  167.7859 C.ar    1  UNL1        0.0108
      7 C         141.4943  139.9905  168.9860 C.ar    1  UNL1        0.0537
      8 CL        142.1497  140.2015  170.3186 Cl      1  UNL1       -0.0826
      9 C         139.5281  139.3578  164.9881 C.3     1  UNL1        0.0424
     10 C         139.7873  138.0309  164.3381 C.3     1  UNL1        0.0315
     11 C         139.2826  137.5201  163.0211 C.2     1  UNL1       -0.0289
     12 C         138.3942  138.2100  162.0289 C.2     1  UNL1       -0.0136
     13 C         137.7909  139.5810  162.1084 C.3     1  UNL1        0.0950
     14 N         137.9271  140.6008  163.2000 N.3     1  UNL1       -0.2935
     15 C         138.7002  140.5014  164.4815 C.3     1  UNL1        0.0735
     16 H         136.9688  140.7902  163.4937 H       1  UNL1        0.1236
@<TRIPOS>BOND
     1     1     2    1
     2     2     3   ar
     3     3     4   ar
     4     4     9    1
     5     9    10    1
     6    10    11    1
     7    11    12    2
     8    12    13    1
     9    13    14    1
    10    14    15    1
    11     4     5   ar
    12     5     6   ar
    13     6     7   ar
    14     7     8    1
    15     7     2   ar
    16    15     9    1
    17    14    16    1
@<TRIPOS>MOLECULE
*****
 16 17 0 0 0
SMALL
GASTEIGER

@<TRIPOS>ATOM
      1 C         139.8562  140.2049  170.0686 C.3     1  UNL1        0.0319
      2 C         139.9040  140.8727  168.7263 C.ar    1  UNL1       -0.0116
      3 C         139.4845  140.1198  167.4986 C.ar    1  UNL1       -0.0076
      4 C         139.5323  140.7875  166.1564 C.ar    1  UNL1       -0.0211
      5 C         139.9997  142.2082  166.0417 C.ar    1  UNL1       -0.0034
      6 C         140.4193  142.9612  167.2693 C.ar    1  UNL1        0.0108
      7 C         140.3714  142.2934  168.6116 C.ar    1  UNL1        0.0537
      8 CL        140.7910  143.0463  169.8392 Cl      1  UNL1       -0.0826
      9 C         139.1128  140.0347  164.9287 C.3     1  UNL1        0.0424
     10 C         139.7134  138.6698  164.7653 C.3     1  UNL1        0.0315
     11 C         139.4977  137.6794  163.6596 C.2     1  UNL1       -0.0289
     12 C         138.6282  137.8091  162.4443 C.2     1  UNL1       -0.0136
     13 C         137.7595  138.9613  162.0344 C.3     1  UNL1        0.0950
     14 N         137.5460  140.2683  162.7387 N.3     1  UNL1       -0.2935
     15 C         138.1483  140.7460  164.0268 C.3     1  UNL1        0.0735
     16 H         136.5391  140.3125  162.8956 H       1  UNL1        0.1236
@<TRIPOS>BOND
     1     1     2    1
     2     2     3   ar
     3     3     4   ar
     4     4     9    1
     5     9    10    1
     6    10    11    1
     7    11    12    2
     8    12    13    1
     9    13    14    1
    10    14    15    1
    11     4     5   ar
    12     5     6   ar
    13     6     7   ar
    14     7     8    1
    15     7     2   ar
    16    15     9    1
    17    14    16    1
@<TRIPOS>MOLECULE
*****
 16 17 0 0 0
SMALL
GASTEIGER

@<TRIPOS>ATOM
      1 C         142.3684  139.0920  169.9393 C.3     1  UNL1        0.0319
      2 C         142.6230  139.9192  168.7142 C.ar    1  UNL1       -0.0116
      3 C         142.6921  139.2629  167.3671 C.ar    1  UNL1       -0.0076
      4 C         142.9467  140.0901  166.1420 C.ar    1  UNL1       -0.0211
      5 C         143.1323  141.5736  166.2639 C.ar    1  UNL1       -0.0034
      6 C         143.0633  142.2299  167.6110 C.ar    1  UNL1        0.0108
      7 C         142.8086  141.4027  168.8361 C.ar    1  UNL1        0.0537
      8 CL        142.7396  142.0590  170.1831 Cl      1  UNL1       -0.0826
      9 C         143.0157  139.4339  164.7949 C.3     1  UNL1        0.0424
     10 C         141.8389  138.5799  164.4260 C.3     1  UNL1        0.0315
     11 C         141.6082  137.7995  163.1659 C.2     1  UNL1       -0.0289
     12 C         142.4971  137.6804  161.9637 C.2     1  UNL1       -0.0136
     13 C         143.8364  138.3121  161.7244 C.3     1  UNL1        0.0950
     14 N         144.6175  139.2191  162.6284 N.3     1  UNL1       -0.2935
     15 C         144.2522  139.7183  163.9949 C.3     1  UNL1        0.0735
     16 H         144.7630  140.0653  162.0777 H       1  UNL1        0.1236
@<TRIPOS>BOND
     1     1     2    1
     2     2     3   ar
     3     3     4   ar
     4     4     9    1
     5     9    10    1
     6    10    11    1
     7    11    12    2
     8    12    13    1
     9    13    14    1
    10    14    15    1
    11     4     5   ar
    12     5     6   ar
    13     6     7   ar
    14     7     8    1
    15     7     2   ar
    16    15     9    1
    17    14    16    1
@<TRIPOS>MOLECULE
*****
 16 17 0 0 0
SMALL
GASTEIGER

@<TRIPOS>ATOM
      1 C         137.6945  141.1847  162.1593 C.3     1  UNL1        0.0319
      2 C         138.2441  140.3079  163.2451 C.ar    1  UNL1       -0.0116
      3 C         138.6232  140.9021  164.5692 C.ar    1  UNL1       -0.0076
      4 C         139.1728  140.0252  165.6550 C.ar    1  UNL1       -0.0211
      5 C         139.3433  138.5541  165.4167 C.ar    1  UNL1       -0.0034
      6 C         138.9641  137.9598  164.0927 C.ar    1  UNL1        0.0108
      7 C         138.4145  138.8368  163.0068 C.ar    1  UNL1        0.0537
      8 CL        138.0354  138.2425  161.6828 Cl      1  UNL1       -0.0826
      9 C         139.5519  140.6194  166.9791 C.3     1  UNL1        0.0424
     10 C         140.1668  141.9867  166.9267 C.3     1  UNL1        0.0315
     11 C         140.6477  142.8400  168.0628 C.2     1  UNL1       -0.0289
     12 C         140.6325  142.5369  169.5316 C.2     1  UNL1       -0.0136
     13 C         140.1327  141.3056  170.2275 C.3     1  UNL1        0.0950
     14 N         139.5246  140.0732  169.6261 N.3     1  UNL1       -0.2935
     15 C         139.2662  139.7680  168.1804 C.3     1  UNL1        0.0735
     16 H         138.6100  139.9965  170.0709 H       1  UNL1        0.1236
@<TRIPOS>BOND
     1     1     2    1
     2     2     3   ar
     3     3     4   ar
     4     4     9    1
     5     9    10    1
     6    10    11    1
     7    11    12    2
     8    12    13    1
     9    13    14    1
    10    14    15    1
    11     4     5   ar
    12     5     6   ar
    13     6     7   ar
    14     7     8    1
    15     7     2   ar
    16    15     9    1
    17    14    16    1
@<TRIPOS>MOLECULE
*****
 16 17 0 0 0
SMALL
GASTEIGER

@<TRIPOS>ATOM
      1 C         142.5792  139.8858  169.5224 C.3     1  UNL1        0.0319
      2 C         141.7048  139.7569  168.3106 C.ar    1  UNL1       -0.0116
      3 C         142.3051  139.3761  166.9896 C.ar    1  UNL1       -0.0076
      4 C         141.4307  139.2472  165.7777 C.ar    1  UNL1       -0.0211
      5 C         139.9560  139.4991  165.8867 C.ar    1  UNL1       -0.0034
      6 C         139.3557  139.8798  167.2075 C.ar    1  UNL1        0.0108
      7 C         140.2301  140.0087  168.4195 C.ar    1  UNL1        0.0537
      8 CL        139.6299  140.3894  169.7403 Cl      1  UNL1       -0.0826
      9 C         142.0309  138.8665  164.4568 C.3     1  UNL1        0.0424
     10 C         143.3193  139.5501  164.1063 C.3     1  UNL1        0.0315
     11 C         144.1585  139.3885  162.8734 C.2     1  UNL1       -0.0289
     12 C         143.9164  138.5036  161.6868 C.2     1  UNL1       -0.0136
     13 C         142.7754  137.5617  161.4397 C.3     1  UNL1        0.0950
     14 N         141.5948  137.2720  162.3184 N.3     1  UNL1       -0.2935
     15 C         141.2635  137.8528  163.6611 C.3     1  UNL1        0.0735
     16 H         141.6362  136.2655  162.4785 H       1  UNL1        0.1236
@<TRIPOS>BOND
     1     1     2    1
     2     2     3   ar
     3     3     4   ar
     4     4     9    1
     5     9    10    1
     6    10    11    1
     7    11    12    2
     8    12    13    1
     9    13    14    1
    10    14    15    1
    11     4     5   ar
    12     5     6   ar
    13     6     7   ar
    14     7     8    1
    15     7     2   ar
    16    15     9    1
    17    14    16    1
@<TRIPOS>MOLECULE
*****
 16 17 0 0 0
SMALL
GASTEIGER

@<TRIPOS>ATOM
      1 C         139.4068  140.4509  169.9240 C.3     1  UNL1        0.0319
      2 C         140.4290  140.6845  168.8515 C.ar    1  UNL1       -0.0116
      3 C         140.1349  141.6358  167.7295 C.ar    1  UNL1       -0.0076
      4 C         141.1571  141.8695  166.6570 C.ar    1  UNL1       -0.0211
      5 C         142.4735  141.1520  166.7063 C.ar    1  UNL1       -0.0034
      6 C         142.7677  140.2008  167.8282 C.ar    1  UNL1        0.0108
      7 C         141.7454  139.9671  168.9008 C.ar    1  UNL1        0.0537
      8 CL        142.0395  139.0159  170.0227 Cl      1  UNL1       -0.0826
      9 C         140.8631  142.8207  165.5350 C.3     1  UNL1        0.0424
     10 C         139.6119  143.6348  165.6832 C.3     1  UNL1        0.0315
     11 C         139.0477  144.6614  164.7461 C.2     1  UNL1       -0.0289
     12 C         139.5952  145.1272  163.4297 C.2     1  UNL1       -0.0136
     13 C         140.8422  144.6817  162.7250 C.3     1  UNL1        0.0950
     14 N         141.8496  143.6602  163.1628 N.3     1  UNL1       -0.2935
     15 C         141.8588  142.8320  164.4134 C.3     1  UNL1        0.0735
     16 H         142.7343  144.1673  163.1856 H       1  UNL1        0.1236
@<TRIPOS>BOND
     1     1     2    1
     2     2     3   ar
     3     3     4   ar
     4     4     9    1
     5     9    10    1
     6    10    11    1
     7    11    12    2
     8    12    13    1
     9    13    14    1
    10    14    15    1
    11     4     5   ar
    12     5     6   ar
    13     6     7   ar
    14     7     8    1
    15     7     2   ar
    16    15     9    1
    17    14    16    1
