@<TRIPOS>MOLECULE
*****
 29 32 0 0 0
SMALL
GASTEIGER

@<TRIPOS>ATOM
      1 C         140.7503  140.0598  165.5042 C.ar    1  UNL1        0.0832
      2 C         139.3382  139.7113  165.1376 C.ar    1  UNL1        0.0125
      3 C         138.2766  139.2267  166.0800 C.3     1  UNL1        0.0340
      4 C         139.1739  139.9326  163.6631 C.ar    1  UNL1        0.0924
      5 N         140.4846  140.4178  163.1184 N.ar    1  UNL1       -0.1671
      6 N         141.4588  140.4964  164.2562 N.ar    1  UNL1       -0.2119
      7 C         143.1445  139.7597  170.9976 C.3     1  UNL1        0.0521
      8 C         142.5459  139.8348  169.6243 C.ar    1  UNL1        0.0594
      9 C         141.3962  140.7602  169.3567 C.ar    1  UNL1        0.0148
     10 C         140.7976  140.8352  167.9834 C.ar    1  UNL1        0.0042
     11 C         141.3489  139.9848  166.8775 C.ar    1  UNL1        0.0366
     12 C         142.4986  139.0594  167.1451 C.ar    1  UNL1        0.0999
     13 N         143.0971  138.9843  168.5184 N.ar    1  UNL1       -0.2481
     14 C         142.8903  140.9347  164.1626 C.ar    1  UNL1        0.1743
     15 N         143.9572  139.9415  163.8083 N.ar    1  UNL1       -0.2243
     16 C         145.3887  140.3798  163.7147 C.ar    1  UNL1        0.1006
     17 C         145.7533  141.8113  163.9752 C.ar    1  UNL1        0.0217
     18 C         144.6865  142.8044  164.3293 C.ar    1  UNL1        0.0161
     19 C         143.2550  142.3661  164.4230 C.ar    1  UNL1        0.0934
     20 CL        142.1882  143.3594  164.7772 Cl      1  UNL1       -0.0790
     21 C         137.9193  139.7081  162.8722 C.3     1  UNL1        0.1167
     22 N         137.0217  140.8645  162.5455 N.3     1  UNL1       -0.2913
     23 H         136.1360  140.6936  163.0217 H       1  UNL1        0.1236
     24 C         137.4400  142.2614  162.8975 C.3     1  UNL1        0.0872
     25 C         137.3235  142.9026  164.2485 C.3     1  UNL1        0.0186
     26 C         137.8597  144.2998  164.1461 C.3     1  UNL1        0.0043
     27 C         138.3076  144.5220  162.7319 C.3     1  UNL1        0.0367
     28 C         138.0481  143.2622  161.9601 C.3     1  UNL1        0.1752
     29 F         138.3448  143.0418  160.5063 F       1  UNL1       -0.2359
@<TRIPOS>BOND
     1     7     8    1
     2     8     9   ar
     3     9    10   ar
     4    10    11   ar
     5    11     1    1
     6     1     2   ar
     7     2     3    1
     8     2     4   ar
     9     4    21    1
    10    21    22    1
    11    22    24    1
    12    24    25    1
    13    25    26    1
    14    26    27    1
    15    27    28    1
    16    28    29    1
    17     4     5   ar
    18     5     6   ar
    19     6    14    1
    20    14    15   ar
    21    15    16   ar
    22    16    17   ar
    23    17    18   ar
    24    18    19   ar
    25    19    20    1
    26    11    12   ar
    27    12    13   ar
    28    13     8   ar
    29     6     1   ar
    30    19    14   ar
    31    28    24    1
    32    22    23    1
@<TRIPOS>MOLECULE
*****
 29 32 0 0 0
SMALL
GASTEIGER

@<TRIPOS>ATOM
      1 C         140.4849  141.3258  165.6881 C.ar    1  UNL1        0.0832
      2 C         139.4646  140.2352  165.5489 C.ar    1  UNL1        0.0125
      3 C         138.8813  139.4253  166.6687 C.3     1  UNL1        0.0340
      4 C         139.1299  140.0965  164.0933 C.ar    1  UNL1        0.0924
      5 N         139.9434  141.1015  163.3329 N.ar    1  UNL1       -0.1671
      6 N         140.7808  141.8613  164.3185 N.ar    1  UNL1       -0.2119
      7 C         142.9498  143.2151  170.8218 C.3     1  UNL1        0.0521
      8 C         142.3336  142.7428  169.5384 C.ar    1  UNL1        0.0594
      9 C         140.9375  143.1576  169.1795 C.ar    1  UNL1        0.0148
     10 C         140.3213  142.6853  167.8961 C.ar    1  UNL1        0.0042
     11 C         141.1011  141.7982  166.9715 C.ar    1  UNL1        0.0366
     12 C         142.4972  141.3833  167.3304 C.ar    1  UNL1        0.0999
     13 N         143.1134  141.8556  168.6139 N.ar    1  UNL1       -0.2481
     14 C         141.7449  142.9630  163.9919 C.ar    1  UNL1        0.1743
     15 N         143.1435  142.6327  163.5618 N.ar    1  UNL1       -0.2243
     16 C         144.1076  143.7345  163.2351 C.ar    1  UNL1        0.1006
     17 C         143.6732  145.1665  163.3386 C.ar    1  UNL1        0.0217
     18 C         142.2746  145.4967  163.7687 C.ar    1  UNL1        0.0161
     19 C         141.3105  144.3949  164.0953 C.ar    1  UNL1        0.0934
     20 CL        139.9119  144.7253  164.5254 Cl      1  UNL1       -0.0790
     21 C         138.1532  139.1237  163.5020 C.3     1  UNL1        0.1167
     22 N         138.6506  137.9277  162.7456 N.3     1  UNL1       -0.2913
     23 H         138.0050  137.7806  161.9697 H       1  UNL1        0.1236
     24 C         140.0332  137.9300  162.1640 C.3     1  UNL1        0.0872
     25 C         140.4126  138.4082  160.7938 C.3     1  UNL1        0.0186
     26 C         141.8931  138.2282  160.6334 C.3     1  UNL1        0.0043
     27 C         142.4288  137.6388  161.9045 C.3     1  UNL1        0.0367
     28 C         141.2793  137.4545  162.8505 C.3     1  UNL1        0.1752
     29 F         141.3614  136.8932  164.2391 F       1  UNL1       -0.2359
@<TRIPOS>BOND
     1     7     8    1
     2     8     9   ar
     3     9    10   ar
     4    10    11   ar
     5    11     1    1
     6     1     2   ar
     7     2     3    1
     8     2     4   ar
     9     4    21    1
    10    21    22    1
    11    22    24    1
    12    24    25    1
    13    25    26    1
    14    26    27    1
    15    27    28    1
    16    28    29    1
    17     4     5   ar
    18     5     6   ar
    19     6    14    1
    20    14    15   ar
    21    15    16   ar
    22    16    17   ar
    23    17    18   ar
    24    18    19   ar
    25    19    20    1
    26    11    12   ar
    27    12    13   ar
    28    13     8   ar
    29     6     1   ar
    30    19    14   ar
    31    28    24    1
    32    22    23    1
@<TRIPOS>MOLECULE
*****
 29 32 0 0 0
SMALL
GASTEIGER

@<TRIPOS>ATOM
      1 C         141.3822  141.1544  165.1503 C.ar    1  UNL1        0.0832
      2 C         142.1628  141.0998  166.4300 C.ar    1  UNL1        0.0125
      3 C         142.7380  142.2756  167.1627 C.3     1  UNL1        0.0340
      4 C         142.2673  139.6632  166.8485 C.ar    1  UNL1        0.0924
      5 N         141.5512  138.8298  165.8274 N.ar    1  UNL1       -0.1671
      6 N         141.0042  139.7514  164.7779 N.ar    1  UNL1       -0.2119
      7 C         140.0121  146.1136  162.0634 C.3     1  UNL1        0.0521
      8 C         140.3547  144.8738  162.8351 C.ar    1  UNL1        0.0594
      9 C         139.6209  144.5532  164.1035 C.ar    1  UNL1        0.0148
     10 C         139.9634  143.3134  164.8752 C.ar    1  UNL1        0.0042
     11 C         141.0397  142.3942  164.3786 C.ar    1  UNL1        0.0366
     12 C         141.7734  142.7147  163.1102 C.ar    1  UNL1        0.0999
     13 N         141.4309  143.9545  162.3385 N.ar    1  UNL1       -0.2481
     14 C         140.2174  139.3418  163.5683 C.ar    1  UNL1        0.1743
     15 N         140.9176  138.7377  162.3872 N.ar    1  UNL1       -0.2243
     16 C         140.1307  138.3282  161.1776 C.ar    1  UNL1        0.1006
     17 C         138.6437  138.5227  161.1490 C.ar    1  UNL1        0.0217
     18 C         137.9435  139.1268  162.3300 C.ar    1  UNL1        0.0161
     19 C         138.7304  139.5363  163.5396 C.ar    1  UNL1        0.0934
     20 CL        138.0301  140.1404  164.7207 Cl      1  UNL1       -0.0790
     21 C         142.9653  139.1501  168.0730 C.3     1  UNL1        0.1167
     22 N         142.2200  139.0391  169.3700 N.3     1  UNL1       -0.2913
     23 H         142.9164  138.8724  170.0965 H       1  UNL1        0.1236
     24 C         141.3645  140.1768  169.8431 C.3     1  UNL1        0.0872
     25 C         141.7578  141.2160  170.8507 C.3     1  UNL1        0.0186
     26 C         140.6019  142.1565  171.0220 C.3     1  UNL1        0.0043
     27 C         139.4941  141.6985  170.1202 C.3     1  UNL1        0.0367
     28 C         139.9655  140.4749  169.3916 C.3     1  UNL1        0.1752
     29 F         139.1763  139.6877  168.3878 F       1  UNL1       -0.2359
@<TRIPOS>BOND
     1     7     8    1
     2     8     9   ar
     3     9    10   ar
     4    10    11   ar
     5    11     1    1
     6     1     2   ar
     7     2     3    1
     8     2     4   ar
     9     4    21    1
    10    21    22    1
    11    22    24    1
    12    24    25    1
    13    25    26    1
    14    26    27    1
    15    27    28    1
    16    28    29    1
    17     4     5   ar
    18     5     6   ar
    19     6    14    1
    20    14    15   ar
    21    15    16   ar
    22    16    17   ar
    23    17    18   ar
    24    18    19   ar
    25    19    20    1
    26    11    12   ar
    27    12    13   ar
    28    13     8   ar
    29     6     1   ar
    30    19    14   ar
    31    28    24    1
    32    22    23    1
@<TRIPOS>MOLECULE
*****
 29 32 0 0 0
SMALL
GASTEIGER

@<TRIPOS>ATOM
      1 C         141.6137  140.3023  165.6000 C.ar    1  UNL1        0.0832
      2 C         142.5132  139.2157  165.0898 C.ar    1  UNL1        0.0125
      3 C         143.3647  138.3096  165.9288 C.3     1  UNL1        0.0340
      4 C         142.4117  139.1944  163.5934 C.ar    1  UNL1        0.0924
      5 N         141.4495  140.2678  163.1787 N.ar    1  UNL1       -0.1671
      6 N         140.9564  140.9525  164.4189 N.ar    1  UNL1       -0.2119
      7 C         140.7899  141.7871  171.3547 C.3     1  UNL1        0.0521
      8 C         140.9959  141.4159  169.9161 C.ar    1  UNL1        0.0594
      9 C         139.9973  140.5421  169.2166 C.ar    1  UNL1        0.0148
     10 C         140.2032  140.1710  167.7779 C.ar    1  UNL1        0.0042
     11 C         141.4078  140.6735  167.0387 C.ar    1  UNL1        0.0366
     12 C         142.4064  141.5472  167.7382 C.ar    1  UNL1        0.0999
     13 N         142.2004  141.9184  169.1769 N.ar    1  UNL1       -0.2481
     14 C         139.9776  142.0881  164.4690 C.ar    1  UNL1        0.1743
     15 N         140.4724  143.5038  164.5024 N.ar    1  UNL1       -0.2243
     16 C         139.4937  144.6394  164.5526 C.ar    1  UNL1        0.1006
     17 C         138.0202  144.3594  164.5694 C.ar    1  UNL1        0.0217
     18 C         137.5254  142.9437  164.5359 C.ar    1  UNL1        0.0161
     19 C         138.5041  141.8081  164.4858 C.ar    1  UNL1        0.0934
     20 CL        138.0092  140.3925  164.4524 Cl      1  UNL1       -0.0790
     21 C         143.1439  138.2632  162.6733 C.3     1  UNL1        0.1167
     22 N         144.2541  138.7825  161.8085 N.3     1  UNL1       -0.2913
     23 H         144.1390  138.3516  160.8912 H       1  UNL1        0.1236
     24 C         144.3985  140.2577  161.5790 C.3     1  UNL1        0.0872
     25 C         143.9119  141.0151  160.3791 C.3     1  UNL1        0.0186
     26 C         144.2675  142.4601  160.5676 C.3     1  UNL1        0.0043
     27 C         144.9739  142.5958  161.8839 C.3     1  UNL1        0.0367
     28 C         145.0549  141.2346  162.5090 C.3     1  UNL1        0.1752
     29 F         145.6821  140.9077  163.8318 F       1  UNL1       -0.2359
@<TRIPOS>BOND
     1     7     8    1
     2     8     9   ar
     3     9    10   ar
     4    10    11   ar
     5    11     1    1
     6     1     2   ar
     7     2     3    1
     8     2     4   ar
     9     4    21    1
    10    21    22    1
    11    22    24    1
    12    24    25    1
    13    25    26    1
    14    26    27    1
    15    27    28    1
    16    28    29    1
    17     4     5   ar
    18     5     6   ar
    19     6    14    1
    20    14    15   ar
    21    15    16   ar
    22    16    17   ar
    23    17    18   ar
    24    18    19   ar
    25    19    20    1
    26    11    12   ar
    27    12    13   ar
    28    13     8   ar
    29     6     1   ar
    30    19    14   ar
    31    28    24    1
    32    22    23    1
@<TRIPOS>MOLECULE
*****
 29 32 0 0 0
SMALL
GASTEIGER

@<TRIPOS>ATOM
      1 C         140.7022  140.2737  165.1788 C.ar    1  UNL1        0.0832
      2 C         139.4119  139.5657  164.8896 C.ar    1  UNL1        0.0125
      3 C         138.2677  139.3931  165.8442 C.3     1  UNL1        0.0340
      4 C         139.4664  139.0605  163.4783 C.ar    1  UNL1        0.0924
      5 N         140.7906  139.4563  162.8952 N.ar    1  UNL1       -0.1671
      6 N         141.5543  140.2061  163.9461 N.ar    1  UNL1       -0.2119
      7 C         142.1936  142.9127  170.3568 C.3     1  UNL1        0.0521
      8 C         141.8208  142.2529  169.0623 C.ar    1  UNL1        0.0594
      9 C         142.4230  140.9294  168.6943 C.ar    1  UNL1        0.0148
     10 C         142.0502  140.2696  167.3998 C.ar    1  UNL1        0.0042
     11 C         141.0751  140.9334  166.4733 C.ar    1  UNL1        0.0366
     12 C         140.4728  142.2570  166.8412 C.ar    1  UNL1        0.0999
     13 N         140.8457  142.9167  168.1357 N.ar    1  UNL1       -0.2481
     14 C         142.9289  140.7864  163.7916 C.ar    1  UNL1        0.1743
     15 N         143.1077  142.1309  163.1508 N.ar    1  UNL1       -0.2243
     16 C         144.4822  142.7112  162.9963 C.ar    1  UNL1        0.1006
     17 C         145.6779  141.9471  163.4824 C.ar    1  UNL1        0.0217
     18 C         145.4991  140.6027  164.1231 C.ar    1  UNL1        0.0161
     19 C         144.1246  140.0224  164.2777 C.ar    1  UNL1        0.0934
     20 CL        143.9459  138.6779  164.9184 Cl      1  UNL1       -0.0790
     21 C         138.3865  138.2941  162.7737 C.3     1  UNL1        0.1167
     22 N         137.4797  138.9942  161.8054 N.3     1  UNL1       -0.2913
     23 H         136.5561  139.0258  162.2370 H       1  UNL1        0.1236
     24 C         137.7960  140.3901  161.3567 C.3     1  UNL1        0.0872
     25 C         138.3223  140.7850  160.0087 C.3     1  UNL1        0.0186
     26 C         138.4931  142.2752  159.9962 C.3     1  UNL1        0.0043
     27 C         138.0723  142.8013  161.3364 C.3     1  UNL1        0.0367
     28 C         137.6414  141.6362  162.1773 C.3     1  UNL1        0.1752
     29 F         137.1435  141.7052  163.5906 F       1  UNL1       -0.2359
@<TRIPOS>BOND
     1     7     8    1
     2     8     9   ar
     3     9    10   ar
     4    10    11   ar
     5    11     1    1
     6     1     2   ar
     7     2     3    1
     8     2     4   ar
     9     4    21    1
    10    21    22    1
    11    22    24    1
    12    24    25    1
    13    25    26    1
    14    26    27    1
    15    27    28    1
    16    28    29    1
    17     4     5   ar
    18     5     6   ar
    19     6    14    1
    20    14    15   ar
    21    15    16   ar
    22    16    17   ar
    23    17    18   ar
    24    18    19   ar
    25    19    20    1
    26    11    12   ar
    27    12    13   ar
    28    13     8   ar
    29     6     1   ar
    30    19    14   ar
    31    28    24    1
    32    22    23    1
@<TRIPOS>MOLECULE
*****
 29 32 0 0 0
SMALL
GASTEIGER

@<TRIPOS>ATOM
      1 C         139.5764  140.7935  165.1857 C.ar    1  UNL1        0.0832
      2 C         139.0728  139.9567  166.3241 C.ar    1  UNL1        0.0125
      3 C         138.1782  138.7582  166.2092 C.3     1  UNL1        0.0340
      4 C         139.6208  140.5289  167.5979 C.ar    1  UNL1        0.0924
      5 N         140.4631  141.7193  167.2466 N.ar    1  UNL1       -0.1671
      6 N         140.4357  141.8828  165.7558 N.ar    1  UNL1       -0.2119
      7 C         138.3662  139.9342  159.3721 C.3     1  UNL1        0.0521
      8 C         138.6688  140.1491  160.8255 C.ar    1  UNL1        0.0594
      9 C         137.6488  140.7936  161.7166 C.ar    1  UNL1        0.0148
     10 C         137.9513  141.0084  163.1700 C.ar    1  UNL1        0.0042
     11 C         139.2739  140.5787  163.7323 C.ar    1  UNL1        0.0366
     12 C         140.2939  139.9341  162.8412 C.ar    1  UNL1        0.0999
     13 N         139.9913  139.7193  161.3878 N.ar    1  UNL1       -0.2481
     14 C         141.1433  142.9486  164.9726 C.ar    1  UNL1        0.1743
     15 N         142.6038  142.8059  164.6615 N.ar    1  UNL1       -0.2243
     16 C         143.3115  143.8717  163.8783 C.ar    1  UNL1        0.1006
     17 C         142.5587  145.0801  163.4062 C.ar    1  UNL1        0.0217
     18 C         141.0982  145.2228  163.7172 C.ar    1  UNL1        0.0161
     19 C         140.3906  144.1570  164.5004 C.ar    1  UNL1        0.0934
     20 CL        138.9301  144.2998  164.8114 Cl      1  UNL1       -0.0790
     21 C         139.3705  140.0029  168.9801 C.3     1  UNL1        0.1167
     22 N         140.5150  139.8229  169.9328 N.3     1  UNL1       -0.2913
     23 H         140.9919  138.9632  169.6610 H       1  UNL1        0.1236
     24 C         141.5685  140.8844  170.0485 C.3     1  UNL1        0.0872
     25 C         143.0047  140.7498  169.6369 C.3     1  UNL1        0.0186
     26 C         143.6945  142.0491  169.9302 C.3     1  UNL1        0.0043
     27 C         142.6848  142.9867  170.5229 C.3     1  UNL1        0.0367
     28 C         141.3708  142.2668  170.5961 C.3     1  UNL1        0.1752
     29 F         140.0849  142.8304  171.1241 F       1  UNL1       -0.2359
@<TRIPOS>BOND
     1     7     8    1
     2     8     9   ar
     3     9    10   ar
     4    10    11   ar
     5    11     1    1
     6     1     2   ar
     7     2     3    1
     8     2     4   ar
     9     4    21    1
    10    21    22    1
    11    22    24    1
    12    24    25    1
    13    25    26    1
    14    26    27    1
    15    27    28    1
    16    28    29    1
    17     4     5   ar
    18     5     6   ar
    19     6    14    1
    20    14    15   ar
    21    15    16   ar
    22    16    17   ar
    23    17    18   ar
    24    18    19   ar
    25    19    20    1
    26    11    12   ar
    27    12    13   ar
    28    13     8   ar
    29     6     1   ar
    30    19    14   ar
    31    28    24    1
    32    22    23    1
@<TRIPOS>MOLECULE
*****
 29 32 0 0 0
SMALL
GASTEIGER

@<TRIPOS>ATOM
      1 C         142.0072  140.5245  165.5538 C.ar    1  UNL1        0.0832
      2 C         142.9530  139.4822  165.0353 C.ar    1  UNL1        0.0125
      3 C         143.8069  138.5734  165.8690 C.3     1  UNL1        0.0340
      4 C         142.8951  139.5081  163.5366 C.ar    1  UNL1        0.0924
      5 N         141.9135  140.5664  163.1289 N.ar    1  UNL1       -0.1671
      6 N         141.3647  141.1946  164.3756 N.ar    1  UNL1       -0.2119
      7 C         140.9750  141.7911  171.3271 C.3     1  UNL1        0.0521
      8 C         141.2330  141.4744  169.8838 C.ar    1  UNL1        0.0594
      9 C         142.3094  142.2046  169.1366 C.ar    1  UNL1        0.0148
     10 C         142.5674  141.8879  167.6933 C.ar    1  UNL1        0.0042
     11 C         141.7491  140.8412  166.9971 C.ar    1  UNL1        0.0366
     12 C         140.6728  140.1110  167.7443 C.ar    1  UNL1        0.0999
     13 N         140.4147  140.4277  169.1876 N.ar    1  UNL1       -0.2481
     14 C         140.3514  142.2990  164.4338 C.ar    1  UNL1        0.1743
     15 N         140.7975  143.7301  164.3769 N.ar    1  UNL1       -0.2243
     16 C         139.7842  144.8345  164.4352 C.ar    1  UNL1        0.1006
     17 C         138.3247  144.5080  164.5503 C.ar    1  UNL1        0.0217
     18 C         137.8786  143.0770  164.6072 C.ar    1  UNL1        0.0161
     19 C         138.8919  141.9726  164.5490 C.ar    1  UNL1        0.0934
     20 CL        138.4457  140.5415  164.6059 Cl      1  UNL1       -0.0790
     21 C         143.6809  138.6298  162.6086 C.3     1  UNL1        0.1167
     22 N         142.9689  137.6731  161.6988 N.3     1  UNL1       -0.2913
     23 H         142.9962  136.7599  162.1523 H       1  UNL1        0.1236
     24 C         141.5403  137.9241  161.3166 C.3     1  UNL1        0.0872
     25 C         141.0615  138.4680  160.0032 C.3     1  UNL1        0.0186
     26 C         139.5649  138.5553  160.0555 C.3     1  UNL1        0.0043
     27 C         139.1188  138.0654  161.4012 C.3     1  UNL1        0.0367
     28 C         140.3396  137.6752  162.1806 C.3     1  UNL1        0.1752
     29 F         140.3568  137.1317  163.5786 F       1  UNL1       -0.2359
@<TRIPOS>BOND
     1     7     8    1
     2     8     9   ar
     3     9    10   ar
     4    10    11   ar
     5    11     1    1
     6     1     2   ar
     7     2     3    1
     8     2     4   ar
     9     4    21    1
    10    21    22    1
    11    22    24    1
    12    24    25    1
    13    25    26    1
    14    26    27    1
    15    27    28    1
    16    28    29    1
    17     4     5   ar
    18     5     6   ar
    19     6    14    1
    20    14    15   ar
    21    15    16   ar
    22    16    17   ar
    23    17    18   ar
    24    18    19   ar
    25    19    20    1
    26    11    12   ar
    27    12    13   ar
    28    13     8   ar
    29     6     1   ar
    30    19    14   ar
    31    28    24    1
    32    22    23    1
@<TRIPOS>MOLECULE
*****
 29 32 0 0 0
SMALL
GASTEIGER

@<TRIPOS>ATOM
      1 C         139.8828  142.0752  165.4611 C.ar    1  UNL1        0.0832
      2 C         139.2226  143.3825  165.1370 C.ar    1  UNL1        0.0125
      3 C         139.2190  144.6071  166.0032 C.3     1  UNL1        0.0340
      4 C         138.5665  143.2502  163.7946 C.ar    1  UNL1        0.0924
      5 N         138.8212  141.8612  163.2890 N.ar    1  UNL1       -0.1671
      6 N         139.6348  141.1350  164.3189 N.ar    1  UNL1       -0.2119
      7 C         142.9734  140.8262  170.4499 C.3     1  UNL1        0.0521
      8 C         142.2008  141.1385  169.2027 C.ar    1  UNL1        0.0594
      9 C         140.7675  140.7129  169.0820 C.ar    1  UNL1        0.0148
     10 C         139.9949  141.0251  167.8348 C.ar    1  UNL1        0.0042
     11 C         140.6555  141.7630  166.7083 C.ar    1  UNL1        0.0366
     12 C         142.0887  142.1886  166.8290 C.ar    1  UNL1        0.0999
     13 N         142.8614  141.8763  168.0762 N.ar    1  UNL1       -0.2481
     14 C         140.1158  139.7174  164.2235 C.ar    1  UNL1        0.1743
     15 N         141.3512  139.3961  163.4355 N.ar    1  UNL1       -0.2243
     16 C         141.8323  137.9785  163.3401 C.ar    1  UNL1        0.1006
     17 C         141.0780  136.8823  164.0325 C.ar    1  UNL1        0.0217
     18 C         139.8428  137.2037  164.8204 C.ar    1  UNL1        0.0161
     19 C         139.3617  138.6212  164.9158 C.ar    1  UNL1        0.0934
     20 CL        138.1263  138.9425  165.7038 Cl      1  UNL1       -0.0790
     21 C         137.7916  144.3193  163.0828 C.3     1  UNL1        0.1167
     22 N         138.4869  145.2325  162.1171 N.3     1  UNL1       -0.2913
     23 H         138.6227  146.1216  162.5982 H       1  UNL1        0.1236
     24 C         139.8167  144.8439  161.5421 C.3     1  UNL1        0.0872
     25 C         140.0501  144.2440  160.1872 C.3     1  UNL1        0.0186
     26 C         141.5243  144.0163  160.0289 C.3     1  UNL1        0.0043
     27 C         142.2019  144.4753  161.2858 C.3     1  UNL1        0.0367
     28 C         141.1466  144.9868  162.2212 C.3     1  UNL1        0.1752
     29 F         141.3801  145.5435  163.5943 F       1  UNL1       -0.2359
@<TRIPOS>BOND
     1     7     8    1
     2     8     9   ar
     3     9    10   ar
     4    10    11   ar
     5    11     1    1
     6     1     2   ar
     7     2     3    1
     8     2     4   ar
     9     4    21    1
    10    21    22    1
    11    22    24    1
    12    24    25    1
    13    25    26    1
    14    26    27    1
    15    27    28    1
    16    28    29    1
    17     4     5   ar
    18     5     6   ar
    19     6    14    1
    20    14    15   ar
    21    15    16   ar
    22    16    17   ar
    23    17    18   ar
    24    18    19   ar
    25    19    20    1
    26    11    12   ar
    27    12    13   ar
    28    13     8   ar
    29     6     1   ar
    30    19    14   ar
    31    28    24    1
    32    22    23    1
@<TRIPOS>MOLECULE
*****
 29 32 0 0 0
SMALL
GASTEIGER

@<TRIPOS>ATOM
      1 C         141.3066  140.4727  165.2301 C.ar    1  UNL1        0.0832
      2 C         142.7126  139.9616  165.1202 C.ar    1  UNL1        0.0125
      3 C         143.2178  138.6507  165.6457 C.3     1  UNL1        0.0340
      4 C         143.5247  140.9916  164.3924 C.ar    1  UNL1        0.0924
      5 N         142.6206  142.1393  164.0526 N.ar    1  UNL1       -0.1671
      6 N         141.2498  141.8186  164.5703 N.ar    1  UNL1       -0.2119
      7 C         136.7162  137.6322  167.8493 C.3     1  UNL1        0.0521
      8 C         137.8638  138.3424  167.1945 C.ar    1  UNL1        0.0594
      9 C         138.2455  138.0082  165.7829 C.ar    1  UNL1        0.0148
     10 C         139.3931  138.7183  165.1281 C.ar    1  UNL1        0.0042
     11 C         140.1590  139.7626  165.8849 C.ar    1  UNL1        0.0366
     12 C         139.7773  140.0967  167.2965 C.ar    1  UNL1        0.0999
     13 N         138.6297  139.3866  167.9513 N.ar    1  UNL1       -0.2481
     14 C         140.0354  142.6907  164.4495 C.ar    1  UNL1        0.1743
     15 N         139.8431  143.8433  165.3901 N.ar    1  UNL1       -0.2243
     16 C         138.6286  144.7154  165.2692 C.ar    1  UNL1        0.1006
     17 C         137.6065  144.4349  164.2078 C.ar    1  UNL1        0.0217
     18 C         137.7988  143.2824  163.2672 C.ar    1  UNL1        0.0161
     19 C         139.0132  142.4103  163.3881 C.ar    1  UNL1        0.0934
     20 CL        139.2055  141.2577  162.4475 Cl      1  UNL1       -0.0790
     21 C         144.9845  140.8915  164.0625 C.3     1  UNL1        0.1167
     22 N         145.4240  140.1934  162.8097 N.3     1  UNL1       -0.2913
     23 H         145.9872  139.3941  163.1002 H       1  UNL1        0.1236
     24 C         144.4019  139.6742  161.8424 C.3     1  UNL1        0.0872
     25 C         143.8841  138.2679  161.7771 C.3     1  UNL1        0.0186
     26 C         142.8803  138.1948  160.6649 C.3     1  UNL1        0.0043
     27 C         142.7776  139.5559  160.0428 C.3     1  UNL1        0.0367
     28 C         143.7181  140.4703  160.7706 C.3     1  UNL1        0.1752
     29 F         143.9364  141.9252  160.4779 F       1  UNL1       -0.2359
@<TRIPOS>BOND
     1     7     8    1
     2     8     9   ar
     3     9    10   ar
     4    10    11   ar
     5    11     1    1
     6     1     2   ar
     7     2     3    1
     8     2     4   ar
     9     4    21    1
    10    21    22    1
    11    22    24    1
    12    24    25    1
    13    25    26    1
    14    26    27    1
    15    27    28    1
    16    28    29    1
    17     4     5   ar
    18     5     6   ar
    19     6    14    1
    20    14    15   ar
    21    15    16   ar
    22    16    17   ar
    23    17    18   ar
    24    18    19   ar
    25    19    20    1
    26    11    12   ar
    27    12    13   ar
    28    13     8   ar
    29     6     1   ar
    30    19    14   ar
    31    28    24    1
    32    22    23    1
