@<TRIPOS>MOLECULE
*****
 36 41 0 0 0
SMALL
GASTEIGER

@<TRIPOS>ATOM
      1 C         141.4093  141.2889  161.7963 C.ar    1  UNL1        0.1382
      2 C         142.6099  141.9685  162.3849 C.ar    1  UNL1        0.0366
      3 C         142.7632  142.0633  163.8741 C.ar    1  UNL1       -0.0015
      4 C         141.7158  141.4784  164.7746 C.ar    1  UNL1       -0.0263
      5 C         140.5152  140.7987  164.1860 C.ar    1  UNL1       -0.0231
      6 C         140.3619  140.7040  162.6968 C.ar    1  UNL1        0.0323
      7 C         139.4678  140.2138  165.0865 C.3     1  UNL1        0.0261
      8 C         139.6211  140.3085  166.5756 C.3     1  UNL1        0.0050
      9 C         140.8218  140.9882  167.1642 C.3     1  UNL1        0.0048
     10 C         140.9751  141.0829  168.6533 C.3     1  UNL1        0.0089
     11 C         140.1132  140.6038  169.7836 C.3     1  UNL1        0.0765
     12 C         140.7811  140.9873  171.0708 C.3     1  UNL1        0.0091
     13 C         142.0559  141.7035  170.7361 C.3     1  UNL1        0.0005
     14 C         142.1758  141.7626  169.2420 C.3     1  UNL1        0.0005
     15 C         143.3159  142.4089  169.9716 C.3     1  UNL1        0.0000
     16 C         143.2231  142.3475  168.3415 C.3     1  UNL1        0.0003
     17 C         143.0698  142.2527  166.8523 C.3     1  UNL1        0.0043
     18 C         141.8692  141.5731  166.2637 C.3     1  UNL1        0.0220
     19 C         138.8118  139.8699  169.6501 C.2     1  UNL1        0.2220
     20 O         138.4464  139.2217  168.3477 O.2     1  UNL1       -0.2751
     21 N         137.8757  139.7843  170.8190 N.am    1  UNL1       -0.3043
     22 H         138.1154  140.2098  171.6739 H       1  UNL1        0.1494
     23 C         136.5743  139.0505  170.6855 C.3     1  UNL1        0.0893
     24 C         136.1275  138.1129  171.7678 C.3     1  UNL1        0.0196
     25 C         136.3237  136.8530  172.5579 C.3     1  UNL1        0.0017
     26 C         135.1572  137.7489  172.8523 C.3     1  UNL1        0.0017
     27 O         141.2559  141.1942  160.3072 O.3     1  UNL1       -0.4754
     28 C         140.7477  142.3715  159.5291 C.3     1  UNL1        0.2068
     29 C         139.5998  143.1803  160.0569 C.3     1  UNL1        0.0646
     30 C         139.8560  144.3241  160.9928 C.3     1  UNL1        0.0759
     31 C         141.5367  145.3984  163.5755 C.3     1  UNL1        0.0173
     32 C         140.1969  144.7250  163.6135 C.3     1  UNL1        0.0576
     33 C         139.3945  144.4272  164.8453 C.3     1  UNL1        0.0174
     34 C         138.1259  143.7493  164.4195 C.3     1  UNL1        0.0187
     35 C         138.1444  143.6282  162.9245 C.3     1  UNL1        0.0721
     36 N         139.4244  144.2312  162.4264 N.3     1  UNL1       -0.2738
@<TRIPOS>BOND
     1    32    31    1
     2    32    33    1
     3    33    34    1
     4    34    35    1
     5    35    36    1
     6    36    30    1
     7    30    29    1
     8    29    28    1
     9    28    27    1
    10    27     1    1
    11     1     2   ar
    12     2     3   ar
    13     3     4   ar
    14     4     5   ar
    15     5     6   ar
    16     5     7    1
    17     7     8    1
    18     9     8    1
    19     9    10    1
    20    10    11    1
    21    11    19    1
    22    19    20    2
    23    19    21   am
    24    21    23    1
    25    23    24    1
    26    24    25    1
    27    25    26    1
    28    11    12    1
    29    12    13    1
    30    13    14    1
    31    14    15    1
    32    14    16    1
    33    16    17    1
    34    18    17    1
    35    36    32    1
    36     6     1   ar
    37    18     9    1
    38    18     4    1
    39    14    10    1
    40    26    24    1
    41    21    22    1
@<TRIPOS>MOLECULE
*****
 36 41 0 0 0
SMALL
GASTEIGER

@<TRIPOS>ATOM
      1 C         140.6571  142.1900  161.7480 C.ar    1  UNL1        0.1382
      2 C         141.9501  142.7325  162.2806 C.ar    1  UNL1        0.0366
      3 C         142.2674  142.6150  163.7419 C.ar    1  UNL1       -0.0015
      4 C         141.2917  141.9551  164.6706 C.ar    1  UNL1       -0.0263
      5 C         139.9987  141.4125  164.1379 C.ar    1  UNL1       -0.0231
      6 C         139.6814  141.5300  162.6766 C.ar    1  UNL1        0.0323
      7 C         139.0230  140.7526  165.0666 C.3     1  UNL1        0.0261
      8 C         139.3403  140.6351  166.5279 C.3     1  UNL1        0.0050
      9 C         140.6334  141.1776  167.0606 C.3     1  UNL1        0.0048
     10 C         140.9507  141.0602  168.5219 C.3     1  UNL1        0.0089
     11 C         140.1896  140.4657  169.6697 C.3     1  UNL1        0.0765
     12 C         141.0123  140.6408  170.9117 C.3     1  UNL1        0.0091
     13 C         142.2818  141.3435  170.5316 C.3     1  UNL1        0.0005
     14 C         142.2437  141.6027  169.0547 C.3     1  UNL1        0.0005
     15 C         143.4899  142.0954  169.7287 C.3     1  UNL1        0.0000
     16 C         143.2194  142.2627  168.1260 C.3     1  UNL1        0.0003
     17 C         142.9021  142.3801  166.6646 C.3     1  UNL1        0.0043
     18 C         141.6091  141.8376  166.1320 C.3     1  UNL1        0.0220
     19 C         138.8424  139.8110  169.5895 C.2     1  UNL1        0.2220
     20 O         138.3813  139.1993  168.2999 O.2     1  UNL1       -0.2751
     21 N         137.9562  139.7680  170.7989 N.am    1  UNL1       -0.3043
     22 H         138.2588  140.1695  171.6454 H       1  UNL1        0.1494
     23 C         136.6090  139.1133  170.7187 C.3     1  UNL1        0.0893
     24 C         136.1813  138.1449  171.7814 C.3     1  UNL1        0.0196
     25 C         136.3612  136.8393  172.4977 C.3     1  UNL1        0.0017
     26 C         135.2604  137.7731  172.9056 C.3     1  UNL1        0.0017
     27 O         140.3398  142.3074  160.2866 O.3     1  UNL1       -0.4754
     28 C         140.1228  141.0717  159.4646 C.3     1  UNL1        0.2068
     29 C         141.0984  139.9352  159.5468 C.3     1  UNL1        0.0646
     30 C         140.7504  138.7031  160.3283 C.3     1  UNL1        0.0759
     31 C         139.0352  137.6416  162.8936 C.3     1  UNL1        0.0173
     32 C         140.4809  138.0414  162.9040 C.3     1  UNL1        0.0576
     33 C         141.3920  138.0235  164.0954 C.3     1  UNL1        0.0174
     34 C         142.7436  138.5004  163.6527 C.3     1  UNL1        0.0187
     35 C         142.6677  138.8130  162.1876 C.3     1  UNL1        0.0721
     36 N         141.2693  138.5293  161.7249 N.3     1  UNL1       -0.2738
@<TRIPOS>BOND
     1    32    31    1
     2    32    33    1
     3    33    34    1
     4    34    35    1
     5    35    36    1
     6    36    30    1
     7    30    29    1
     8    29    28    1
     9    28    27    1
    10    27     1    1
    11     1     2   ar
    12     2     3   ar
    13     3     4   ar
    14     4     5   ar
    15     5     6   ar
    16     5     7    1
    17     7     8    1
    18     9     8    1
    19     9    10    1
    20    10    11    1
    21    11    19    1
    22    19    20    2
    23    19    21   am
    24    21    23    1
    25    23    24    1
    26    24    25    1
    27    25    26    1
    28    11    12    1
    29    12    13    1
    30    13    14    1
    31    14    15    1
    32    14    16    1
    33    16    17    1
    34    18    17    1
    35    36    32    1
    36     6     1   ar
    37    18     9    1
    38    18     4    1
    39    14    10    1
    40    26    24    1
    41    21    22    1
@<TRIPOS>MOLECULE
*****
 36 41 0 0 0
SMALL
GASTEIGER

@<TRIPOS>ATOM
      1 C         137.9187  140.8189  158.6526 C.ar    1  UNL1        0.1382
      2 C         138.8061  141.9536  158.2346 C.ar    1  UNL1        0.0366
      3 C         139.8221  142.5028  159.1917 C.ar    1  UNL1       -0.0015
      4 C         139.9507  141.9173  160.5667 C.ar    1  UNL1       -0.0263
      5 C         139.0633  140.7825  160.9846 C.ar    1  UNL1       -0.0231
      6 C         138.0473  140.2333  160.0275 C.ar    1  UNL1        0.0323
      7 C         139.1918  140.1969  162.3596 C.3     1  UNL1        0.0261
      8 C         140.2078  140.7461  163.3167 C.3     1  UNL1        0.0050
      9 C         141.0954  141.8810  162.8988 C.3     1  UNL1        0.0048
     10 C         142.1114  142.4302  163.8559 C.3     1  UNL1        0.0089
     11 C         142.4656  142.0596  165.2655 C.3     1  UNL1        0.0765
     12 C         143.5721  142.9653  165.7189 C.3     1  UNL1        0.0091
     13 C         143.9016  143.8957  164.5894 C.3     1  UNL1        0.0005
     14 C         142.9989  143.5650  163.4380 C.3     1  UNL1        0.0005
     15 C         143.9506  144.6914  163.1631 C.3     1  UNL1        0.0000
     16 C         142.8703  144.1506  162.0630 C.3     1  UNL1        0.0003
     17 C         141.8542  143.6013  161.1059 C.3     1  UNL1        0.0043
     18 C         140.9668  142.4665  161.5238 C.3     1  UNL1        0.0220
     19 C         141.8258  140.9739  166.0790 C.2     1  UNL1        0.2220
     20 O         142.4689  139.6213  166.1626 O.2     1  UNL1       -0.2751
     21 N         140.5428  141.2406  166.8090 N.am    1  UNL1       -0.3043
     22 H         140.1207  142.1284  166.7541 H       1  UNL1        0.1494
     23 C         139.9030  140.1549  167.6225 C.3     1  UNL1        0.0893
     24 C         138.8867  139.2475  166.9950 C.3     1  UNL1        0.0196
     25 C         137.5901  138.4975  167.0742 C.3     1  UNL1        0.0017
     26 C         138.4230  138.4259  165.8287 C.3     1  UNL1        0.0017
     27 O         136.9026  140.2696  157.6955 O.3     1  UNL1       -0.4754
     28 C         136.7392  140.8879  156.3386 C.3     1  UNL1        0.2068
     29 C         135.3687  141.2128  155.8226 C.3     1  UNL1        0.0646
     30 C         134.4466  140.1092  155.3965 C.3     1  UNL1        0.0759
     31 C         131.5755  141.6584  155.3161 C.3     1  UNL1        0.0173
     32 C         131.9221  140.4886  156.1888 C.3     1  UNL1        0.0576
     33 C         131.0097  139.8256  157.1777 C.3     1  UNL1        0.0174
     34 C         131.7655  138.7036  157.8259 C.3     1  UNL1        0.0187
     35 C         133.1450  138.6734  157.2375 C.3     1  UNL1        0.0721
     36 N         133.2417  139.7765  156.2257 N.3     1  UNL1       -0.2738
@<TRIPOS>BOND
     1    32    31    1
     2    32    33    1
     3    33    34    1
     4    34    35    1
     5    35    36    1
     6    36    30    1
     7    30    29    1
     8    29    28    1
     9    28    27    1
    10    27     1    1
    11     1     2   ar
    12     2     3   ar
    13     3     4   ar
    14     4     5   ar
    15     5     6   ar
    16     5     7    1
    17     7     8    1
    18     9     8    1
    19     9    10    1
    20    10    11    1
    21    11    19    1
    22    19    20    2
    23    19    21   am
    24    21    23    1
    25    23    24    1
    26    24    25    1
    27    25    26    1
    28    11    12    1
    29    12    13    1
    30    13    14    1
    31    14    15    1
    32    14    16    1
    33    16    17    1
    34    18    17    1
    35    36    32    1
    36     6     1   ar
    37    18     9    1
    38    18     4    1
    39    14    10    1
    40    26    24    1
    41    21    22    1
@<TRIPOS>MOLECULE
*****
 36 41 0 0 0
SMALL
GASTEIGER

@<TRIPOS>ATOM
      1 C         140.9005  138.4238  158.3150 C.ar    1  UNL1        0.1382
      2 C         139.8132  139.4078  157.9996 C.ar    1  UNL1        0.0366
      3 C         139.3727  140.3970  159.0376 C.ar    1  UNL1       -0.0015
      4 C         140.0194  140.4021  160.3910 C.ar    1  UNL1       -0.0263
      5 C         141.1067  139.4181  160.7064 C.ar    1  UNL1       -0.0231
      6 C         141.5472  138.4289  159.6685 C.ar    1  UNL1        0.0323
      7 C         141.7534  139.4232  162.0598 C.3     1  UNL1        0.0261
      8 C         141.3129  140.4124  163.0978 C.3     1  UNL1        0.0050
      9 C         140.2256  141.3965  162.7824 C.3     1  UNL1        0.0048
     10 C         139.7851  142.3857  163.8204 C.3     1  UNL1        0.0089
     11 C         140.2343  142.6276  165.2309 C.3     1  UNL1        0.0765
     12 C         139.4246  143.7612  165.7873 C.3     1  UNL1        0.0091
     13 C         138.4751  144.2199  164.7206 C.3     1  UNL1        0.0005
     14 C         138.6978  143.3698  163.5050 C.3     1  UNL1        0.0005
     15 C         137.6290  144.4085  163.3356 C.3     1  UNL1        0.0000
     16 C         138.0511  143.3647  162.1515 C.3     1  UNL1        0.0003
     17 C         138.4917  142.3754  161.1135 C.3     1  UNL1        0.0043
     18 C         139.5789  141.3914  161.4290 C.3     1  UNL1        0.0220
     19 C         141.3051  141.8691  165.9576 C.2     1  UNL1        0.2220
     20 O         142.7285  142.3384  165.8982 O.2     1  UNL1       -0.2751
     21 N         140.9525  140.6412  166.7436 N.am    1  UNL1       -0.3043
     22 H         140.0183  140.3331  166.7826 H       1  UNL1        0.1494
     23 C         142.0233  139.8827  167.4703 C.3     1  UNL1        0.0893
     24 C         142.9805  139.0177  166.7050 C.3     1  UNL1        0.0196
     25 C         143.6387  138.6373  165.4120 C.3     1  UNL1        0.0017
     26 C         143.9802  137.8998  166.6727 C.3     1  UNL1        0.0017
     27 O         141.3410  137.4345  157.2770 O.3     1  UNL1       -0.4754
     28 C         142.7812  137.0230  157.1966 C.3     1  UNL1        0.2068
     29 C         143.1973  135.9288  156.2588 C.3     1  UNL1        0.0646
     30 C         142.6936  134.5312  156.4663 C.3     1  UNL1        0.0759
     31 C         143.3335  132.0723  154.4185 C.3     1  UNL1        0.0173
     32 C         143.9575  132.2824  155.7663 C.3     1  UNL1        0.0576
     33 C         144.9852  131.3990  156.4094 C.3     1  UNL1        0.0174
     34 C         145.3262  131.9834  157.7482 C.3     1  UNL1        0.0187
     35 C         144.5093  133.2278  157.9324 C.3     1  UNL1        0.0721
     36 N         143.6634  133.4126  156.7075 N.3     1  UNL1       -0.2738
@<TRIPOS>BOND
     1    32    31    1
     2    32    33    1
     3    33    34    1
     4    34    35    1
     5    35    36    1
     6    36    30    1
     7    30    29    1
     8    29    28    1
     9    28    27    1
    10    27     1    1
    11     1     2   ar
    12     2     3   ar
    13     3     4   ar
    14     4     5   ar
    15     5     6   ar
    16     5     7    1
    17     7     8    1
    18     9     8    1
    19     9    10    1
    20    10    11    1
    21    11    19    1
    22    19    20    2
    23    19    21   am
    24    21    23    1
    25    23    24    1
    26    24    25    1
    27    25    26    1
    28    11    12    1
    29    12    13    1
    30    13    14    1
    31    14    15    1
    32    14    16    1
    33    16    17    1
    34    18    17    1
    35    36    32    1
    36     6     1   ar
    37    18     9    1
    38    18     4    1
    39    14    10    1
    40    26    24    1
    41    21    22    1
@<TRIPOS>MOLECULE
*****
 36 41 0 0 0
SMALL
GASTEIGER

@<TRIPOS>ATOM
      1 C         141.9541  142.0558  162.5165 C.ar    1  UNL1        0.1382
      2 C         142.3292  143.4773  162.2188 C.ar    1  UNL1        0.0366
      3 C         141.7798  144.1585  161.0006 C.ar    1  UNL1       -0.0015
      4 C         140.8553  143.4182  160.0802 C.ar    1  UNL1       -0.0263
      5 C         140.4802  141.9968  160.3778 C.ar    1  UNL1       -0.0231
      6 C         141.0296  141.3156  161.5960 C.ar    1  UNL1        0.0323
      7 C         139.5557  141.2565  159.4574 C.3     1  UNL1        0.0261
      8 C         139.0063  141.9377  158.2392 C.3     1  UNL1        0.0050
      9 C         139.3813  143.3593  157.9414 C.3     1  UNL1        0.0048
     10 C         138.8319  144.0405  156.7232 C.3     1  UNL1        0.0089
     11 C         137.9067  143.5688  155.6409 C.3     1  UNL1        0.0765
     12 C         137.7099  144.6988  154.6742 C.3     1  UNL1        0.0091
     13 C         138.5135  145.8689  155.1591 C.3     1  UNL1        0.0005
     14 C         139.2070  145.4620  156.4255 C.3     1  UNL1        0.0005
     15 C         139.4910  146.8722  156.0003 C.3     1  UNL1        0.0000
     16 C         140.1315  146.2023  157.3460 C.3     1  UNL1        0.0003
     17 C         140.6809  145.5210  158.5642 C.3     1  UNL1        0.0043
     18 C         140.3058  144.0995  158.8619 C.3     1  UNL1        0.0220
     19 C         137.2870  142.2064  155.5425 C.2     1  UNL1        0.2220
     20 O         138.0531  141.0772  154.9197 O.2     1  UNL1       -0.2751
     21 N         135.9012  141.9731  156.0669 N.am    1  UNL1       -0.3043
     22 H         135.3983  142.7142  156.4757 H       1  UNL1        0.1494
     23 C         135.2815  140.6106  155.9685 C.3     1  UNL1        0.0893
     24 C         133.8322  140.4198  156.3046 C.3     1  UNL1        0.0196
     25 C         132.7662  139.7723  157.1379 C.3     1  UNL1        0.0017
     26 C         132.3877  140.7369  156.0534 C.3     1  UNL1        0.0017
     27 O         142.5036  141.3745  163.7348 O.3     1  UNL1       -0.4754
     28 C         141.6524  141.2300  164.9613 C.3     1  UNL1        0.2068
     29 C         141.3663  142.4256  165.8209 C.3     1  UNL1        0.0646
     30 C         139.9765  142.9857  165.8883 C.3     1  UNL1        0.0759
     31 C         138.0321  141.1450  164.0227 C.3     1  UNL1        0.0173
     32 C         138.3902  142.5805  163.7754 C.3     1  UNL1        0.0576
     33 C         137.9175  143.4219  162.6271 C.3     1  UNL1        0.0174
     34 C         138.5191  144.7880  162.7749 C.3     1  UNL1        0.0187
     35 C         139.3636  144.7909  164.0146 C.3     1  UNL1        0.0721
     36 N         139.2840  143.4265  164.6329 N.3     1  UNL1       -0.2738
@<TRIPOS>BOND
     1    32    31    1
     2    32    33    1
     3    33    34    1
     4    34    35    1
     5    35    36    1
     6    36    30    1
     7    30    29    1
     8    29    28    1
     9    28    27    1
    10    27     1    1
    11     1     2   ar
    12     2     3   ar
    13     3     4   ar
    14     4     5   ar
    15     5     6   ar
    16     5     7    1
    17     7     8    1
    18     9     8    1
    19     9    10    1
    20    10    11    1
    21    11    19    1
    22    19    20    2
    23    19    21   am
    24    21    23    1
    25    23    24    1
    26    24    25    1
    27    25    26    1
    28    11    12    1
    29    12    13    1
    30    13    14    1
    31    14    15    1
    32    14    16    1
    33    16    17    1
    34    18    17    1
    35    36    32    1
    36     6     1   ar
    37    18     9    1
    38    18     4    1
    39    14    10    1
    40    26    24    1
    41    21    22    1
@<TRIPOS>MOLECULE
*****
 36 41 0 0 0
SMALL
GASTEIGER

@<TRIPOS>ATOM
      1 C         139.4111  138.4075  161.2733 C.ar    1  UNL1        0.1382
      2 C         138.3220  137.9519  162.1986 C.ar    1  UNL1        0.0366
      3 C         138.3571  138.3405  163.6469 C.ar    1  UNL1       -0.0015
      4 C         139.4813  139.1847  164.1699 C.ar    1  UNL1       -0.0263
      5 C         140.5704  139.6403  163.2446 C.ar    1  UNL1       -0.0231
      6 C         140.5353  139.2516  161.7963 C.ar    1  UNL1        0.0323
      7 C         141.6946  140.4845  163.7676 C.3     1  UNL1        0.0261
      8 C         141.7297  140.8731  165.2159 C.3     1  UNL1        0.0050
      9 C         140.6405  140.4175  166.1413 C.3     1  UNL1        0.0048
     10 C         140.6756  140.8062  167.5897 C.3     1  UNL1        0.0089
     11 C         141.6487  141.6239  168.3862 C.3     1  UNL1        0.0765
     12 C         141.1610  141.6737  169.8038 C.3     1  UNL1        0.0091
     13 C         139.8865  140.8868  169.8835 C.3     1  UNL1        0.0005
     14 C         139.5865  140.3506  168.5151 C.3     1  UNL1        0.0005
     15 C         138.5733  139.9719  169.5543 C.3     1  UNL1        0.0000
     16 C         138.4623  139.5064  167.9921 C.3     1  UNL1        0.0003
     17 C         138.4272  139.1178  166.5437 C.3     1  UNL1        0.0043
     18 C         139.5163  139.5733  165.6183 C.3     1  UNL1        0.0220
     19 C         142.8913  142.2771  167.8578 C.2     1  UNL1        0.2220
     20 O         143.9835  142.6851  168.8015 O.2     1  UNL1       -0.2751
     21 N         143.0418  142.5223  166.3857 N.am    1  UNL1       -0.3043
     22 H         142.3250  142.2545  165.7662 H       1  UNL1        0.1494
     23 C         144.2844  143.1755  165.8573 C.3     1  UNL1        0.0893
     24 C         144.8742  142.7222  164.5547 C.3     1  UNL1        0.0196
     25 C         145.8103  141.8320  163.7924 C.3     1  UNL1        0.0017
     26 C         144.9595  142.8274  163.0608 C.3     1  UNL1        0.0017
     27 O         139.3760  138.0188  159.8249 O.3     1  UNL1       -0.4754
     28 C         140.1548  138.8108  158.8168 C.3     1  UNL1        0.2068
     29 C         140.9824  138.1037  157.7847 C.3     1  UNL1        0.0646
     30 C         142.4638  137.9668  157.9763 C.3     1  UNL1        0.0759
     31 C         143.6800  140.8606  158.8684 C.3     1  UNL1        0.0173
     32 C         143.6405  139.6222  159.7139 C.3     1  UNL1        0.0576
     33 C         144.1532  139.4967  161.1180 C.3     1  UNL1        0.0174
     34 C         143.9110  138.0889  161.5758 C.3     1  UNL1        0.0187
     35 C         143.2486  137.3444  160.4545 C.3     1  UNL1        0.0721
     36 N         143.0815  138.2921  159.3039 N.3     1  UNL1       -0.2738
@<TRIPOS>BOND
     1    32    31    1
     2    32    33    1
     3    33    34    1
     4    34    35    1
     5    35    36    1
     6    36    30    1
     7    30    29    1
     8    29    28    1
     9    28    27    1
    10    27     1    1
    11     1     2   ar
    12     2     3   ar
    13     3     4   ar
    14     4     5   ar
    15     5     6   ar
    16     5     7    1
    17     7     8    1
    18     9     8    1
    19     9    10    1
    20    10    11    1
    21    11    19    1
    22    19    20    2
    23    19    21   am
    24    21    23    1
    25    23    24    1
    26    24    25    1
    27    25    26    1
    28    11    12    1
    29    12    13    1
    30    13    14    1
    31    14    15    1
    32    14    16    1
    33    16    17    1
    34    18    17    1
    35    36    32    1
    36     6     1   ar
    37    18     9    1
    38    18     4    1
    39    14    10    1
    40    26    24    1
    41    21    22    1
@<TRIPOS>MOLECULE
*****
 36 41 0 0 0
SMALL
GASTEIGER

@<TRIPOS>ATOM
      1 C         138.4337  142.4828  158.8670 C.ar    1  UNL1        0.1382
      2 C         139.4764  143.5526  158.7322 C.ar    1  UNL1        0.0366
      3 C         140.4496  143.7961  159.8474 C.ar    1  UNL1       -0.0015
      4 C         140.3799  142.9698  161.0973 C.ar    1  UNL1       -0.0263
      5 C         139.3371  141.9001  161.2322 C.ar    1  UNL1       -0.0231
      6 C         138.3640  141.6566  160.1170 C.ar    1  UNL1        0.0323
      7 C         139.2675  141.0738  162.4821 C.3     1  UNL1        0.0261
      8 C         140.2406  141.3173  163.5973 C.3     1  UNL1        0.0050
      9 C         141.2835  142.3871  163.4626 C.3     1  UNL1        0.0048
     10 C         142.2566  142.6306  164.5777 C.3     1  UNL1        0.0089
     11 C         142.4305  141.9801  165.9181 C.3     1  UNL1        0.0765
     12 C         143.5807  142.6478  166.6117 C.3     1  UNL1        0.0091
     13 C         144.1178  143.7110  165.7000 C.3     1  UNL1        0.0005
     14 C         143.2995  143.7004  164.4430 C.3     1  UNL1        0.0005
     15 C         144.3911  144.7291  164.4517 C.3     1  UNL1        0.0000
     16 C         143.3691  144.5266  163.1930 C.3     1  UNL1        0.0003
     17 C         142.3959  144.2831  162.0778 C.3     1  UNL1        0.0043
     18 C         141.3531  143.2134  162.2126 C.3     1  UNL1        0.0220
     19 C         141.5999  140.8587  166.4683 C.2     1  UNL1        0.2220
     20 O         141.8767  139.4451  166.0499 O.2     1  UNL1       -0.2751
     21 N         140.4924  141.1510  167.4368 N.am    1  UNL1       -0.3043
     22 H         140.3106  142.0788  167.7114 H       1  UNL1        0.1494
     23 C         139.6618  140.0296  167.9869 C.3     1  UNL1        0.0893
     24 C         138.6732  139.3260  167.1051 C.3     1  UNL1        0.0196
     25 C         137.5829  138.3113  166.9273 C.3     1  UNL1        0.0017
     26 C         138.0511  139.1222  165.7555 C.3     1  UNL1        0.0017
     27 O         137.4604  142.2393  157.7518 O.3     1  UNL1       -0.4754
     28 C         137.6090  141.0295  156.8775 C.3     1  UNL1        0.2068
     29 C         138.9728  140.5820  156.4417 C.3     1  UNL1        0.0646
     30 C         139.7060  139.5363  157.2285 C.3     1  UNL1        0.0759
     31 C         140.3012  138.3560  160.2121 C.3     1  UNL1        0.0173
     32 C         141.1181  139.3884  159.4932 C.3     1  UNL1        0.0576
     33 C         142.3520  140.0595  160.0195 C.3     1  UNL1        0.0174
     34 C         142.8411  141.0168  158.9733 C.3     1  UNL1        0.0187
     35 C         141.9094  140.9373  157.8005 C.3     1  UNL1        0.0721
     36 N         140.8445  139.9309  158.1218 N.3     1  UNL1       -0.2738
@<TRIPOS>BOND
     1    32    31    1
     2    32    33    1
     3    33    34    1
     4    34    35    1
     5    35    36    1
     6    36    30    1
     7    30    29    1
     8    29    28    1
     9    28    27    1
    10    27     1    1
    11     1     2   ar
    12     2     3   ar
    13     3     4   ar
    14     4     5   ar
    15     5     6   ar
    16     5     7    1
    17     7     8    1
    18     9     8    1
    19     9    10    1
    20    10    11    1
    21    11    19    1
    22    19    20    2
    23    19    21   am
    24    21    23    1
    25    23    24    1
    26    24    25    1
    27    25    26    1
    28    11    12    1
    29    12    13    1
    30    13    14    1
    31    14    15    1
    32    14    16    1
    33    16    17    1
    34    18    17    1
    35    36    32    1
    36     6     1   ar
    37    18     9    1
    38    18     4    1
    39    14    10    1
    40    26    24    1
    41    21    22    1
@<TRIPOS>MOLECULE
*****
 36 41 0 0 0
SMALL
GASTEIGER

@<TRIPOS>ATOM
      1 C         140.1231  140.6664  157.4163 C.ar    1  UNL1        0.1382
      2 C         139.3538  139.4349  157.7926 C.ar    1  UNL1        0.0366
      3 C         139.2142  139.0496  159.2355 C.ar    1  UNL1       -0.0015
      4 C         139.8438  139.8957  160.3021 C.ar    1  UNL1       -0.0263
      5 C         140.6131  141.1271  159.9258 C.ar    1  UNL1       -0.0231
      6 C         140.7528  141.5125  158.4829 C.ar    1  UNL1        0.0323
      7 C         141.2427  141.9732  160.9924 C.3     1  UNL1        0.0261
      8 C         141.1031  141.5879  162.4353 C.3     1  UNL1        0.0050
      9 C         140.3337  140.3564  162.8116 C.3     1  UNL1        0.0048
     10 C         140.1940  139.9710  164.2545 C.3     1  UNL1        0.0089
     11 C         140.7008  140.6045  165.5162 C.3     1  UNL1        0.0765
     12 C         140.2447  139.7645  166.6723 C.3     1  UNL1        0.0091
     13 C         139.4560  138.6119  166.1251 C.3     1  UNL1        0.0005
     14 C         139.4247  138.7395  164.6308 C.3     1  UNL1        0.0005
     15 C         138.6892  137.5425  165.1565 C.3     1  UNL1        0.0000
     16 C         138.7951  137.8934  163.5642 C.3     1  UNL1        0.0003
     17 C         138.9348  138.2788  162.1213 C.3     1  UNL1        0.0043
     18 C         139.7041  139.5103  161.7450 C.3     1  UNL1        0.0220
     19 C         141.5199  141.8579  165.6060 C.2     1  UNL1        0.2220
     20 O         140.8465  143.1796  165.8287 O.2     1  UNL1       -0.2751
     21 N         143.0124  141.7896  165.4732 N.am    1  UNL1       -0.3043
     22 H         143.4544  140.9221  165.3270 H       1  UNL1        0.1494
     23 C         143.8315  143.0430  165.5630 C.3     1  UNL1        0.0893
     24 C         143.8540  144.0081  164.4150 C.3     1  UNL1        0.0196
     25 C         143.6281  145.3887  163.8739 C.3     1  UNL1        0.0017
     26 C         144.1192  144.2991  162.9675 C.3     1  UNL1        0.0017
     27 O         140.2628  141.0518  155.9734 O.3     1  UNL1       -0.4754
     28 C         141.3941  140.5018  155.1563 C.3     1  UNL1        0.2068
     29 C         142.8126  140.7959  155.5453 C.3     1  UNL1        0.0646
     30 C         143.6763  139.7078  156.1109 C.3     1  UNL1        0.0759
     31 C         142.1212  137.0016  157.0635 C.3     1  UNL1        0.0173
     32 C         142.7664  138.0116  157.9655 C.3     1  UNL1        0.0576
     33 C         142.8100  137.9550  159.4638 C.3     1  UNL1        0.0174
     34 C         143.5518  139.1639  159.9520 C.3     1  UNL1        0.0187
     35 C         143.9666  139.9677  158.7553 C.3     1  UNL1        0.0721
     36 N         143.4812  139.2555  157.5276 N.3     1  UNL1       -0.2738
@<TRIPOS>BOND
     1    32    31    1
     2    32    33    1
     3    33    34    1
     4    34    35    1
     5    35    36    1
     6    36    30    1
     7    30    29    1
     8    29    28    1
     9    28    27    1
    10    27     1    1
    11     1     2   ar
    12     2     3   ar
    13     3     4   ar
    14     4     5   ar
    15     5     6   ar
    16     5     7    1
    17     7     8    1
    18     9     8    1
    19     9    10    1
    20    10    11    1
    21    11    19    1
    22    19    20    2
    23    19    21   am
    24    21    23    1
    25    23    24    1
    26    24    25    1
    27    25    26    1
    28    11    12    1
    29    12    13    1
    30    13    14    1
    31    14    15    1
    32    14    16    1
    33    16    17    1
    34    18    17    1
    35    36    32    1
    36     6     1   ar
    37    18     9    1
    38    18     4    1
    39    14    10    1
    40    26    24    1
    41    21    22    1
@<TRIPOS>MOLECULE
*****
 36 41 0 0 0
SMALL
GASTEIGER

@<TRIPOS>ATOM
      1 C         140.4504  138.4730  158.3897 C.ar    1  UNL1        0.1382
      2 C         139.3474  139.4606  158.1489 C.ar    1  UNL1        0.0366
      3 C         138.9845  140.4538  159.2128 C.ar    1  UNL1       -0.0015
      4 C         139.7246  140.4593  160.5175 C.ar    1  UNL1       -0.0263
      5 C         140.8276  139.4718  160.7583 C.ar    1  UNL1       -0.0231
      6 C         141.1905  138.4786  159.6944 C.ar    1  UNL1        0.0323
      7 C         141.5677  139.4773  162.0630 C.3     1  UNL1        0.0261
      8 C         141.2048  140.4705  163.1269 C.3     1  UNL1        0.0050
      9 C         140.1017  141.4582  162.8861 C.3     1  UNL1        0.0048
     10 C         139.7388  142.4513  163.9500 C.3     1  UNL1        0.0089
     11 C         140.2868  142.6946  165.3250 C.3     1  UNL1        0.0765
     12 C         139.5224  143.8325  165.9340 C.3     1  UNL1        0.0091
     13 C         138.5020  144.2926  164.9354 C.3     1  UNL1        0.0005
     14 C         138.6358  143.4390  163.7092 C.3     1  UNL1        0.0005
     15 C         137.5616  144.4814  163.6127 C.3     1  UNL1        0.0000
     16 C         137.8957  143.4334  162.4045 C.3     1  UNL1        0.0003
     17 C         138.2586  142.4402  161.3406 C.3     1  UNL1        0.0043
     18 C         139.3616  141.4526  161.5814 C.3     1  UNL1        0.0220
     19 C         141.4031  141.9335  165.9765 C.2     1  UNL1        0.2220
     20 O         142.8283  142.3192  165.7121 O.2     1  UNL1       -0.2751
     21 N         141.0942  140.7866  166.8926 N.am    1  UNL1       -0.3043
     22 H         140.1588  140.5334  167.0663 H       1  UNL1        0.1494
     23 C         142.2105  140.0255  167.5442 C.3     1  UNL1        0.0893
     24 C         142.9802  139.0046  166.7598 C.3     1  UNL1        0.0196
     25 C         143.9859  137.8929  166.7093 C.3     1  UNL1        0.0017
     26 C         143.3073  138.3480  165.4513 C.3     1  UNL1        0.0017
     27 O         140.8133  137.4798  157.3258 O.3     1  UNL1       -0.4754
     28 C         141.6146  137.9155  156.1350 C.3     1  UNL1        0.2068
     29 C         142.8811  138.6957  156.3280 C.3     1  UNL1        0.0646
     30 C         142.8434  140.1952  156.3424 C.3     1  UNL1        0.0759
     31 C         141.0419  142.7554  157.2637 C.3     1  UNL1        0.0173
     32 C         142.1352  142.1127  158.0647 C.3     1  UNL1        0.0576
     33 C         142.5923  142.5340  159.4298 C.3     1  UNL1        0.0174
     34 C         143.7029  141.6175  159.8501 C.3     1  UNL1        0.0187
     35 C         143.9322  140.6298  158.7447 C.3     1  UNL1        0.0721
     36 N         142.9632  140.9359  157.6412 N.3     1  UNL1       -0.2738
@<TRIPOS>BOND
     1    32    31    1
     2    32    33    1
     3    33    34    1
     4    34    35    1
     5    35    36    1
     6    36    30    1
     7    30    29    1
     8    29    28    1
     9    28    27    1
    10    27     1    1
    11     1     2   ar
    12     2     3   ar
    13     3     4   ar
    14     4     5   ar
    15     5     6   ar
    16     5     7    1
    17     7     8    1
    18     9     8    1
    19     9    10    1
    20    10    11    1
    21    11    19    1
    22    19    20    2
    23    19    21   am
    24    21    23    1
    25    23    24    1
    26    24    25    1
    27    25    26    1
    28    11    12    1
    29    12    13    1
    30    13    14    1
    31    14    15    1
    32    14    16    1
    33    16    17    1
    34    18    17    1
    35    36    32    1
    36     6     1   ar
    37    18     9    1
    38    18     4    1
    39    14    10    1
    40    26    24    1
    41    21    22    1
