@<TRIPOS>MOLECULE
*****
 40 43 0 0 0
SMALL
GASTEIGER

@<TRIPOS>ATOM
      1 C         142.9614  138.5836  157.6209 C.2     1  UNL1       -0.0078
      2 C         143.7723  139.6527  156.9506 C.2     1  UNL1       -0.0414
      3 C         144.2115  139.4792  155.5268 C.3     1  UNL1        0.0394
      4 C         145.0224  140.5484  154.8565 C.3     1  UNL1        0.0767
      5 N         145.3942  141.7910  155.6099 N.3     1  UNL1       -0.2683
      6 C         144.9550  141.9645  157.0337 C.3     1  UNL1        0.0767
      7 C         144.1441  140.8954  157.7040 C.3     1  UNL1        0.0394
      8 C         141.6440  139.1041  161.8921 C.ar    1  UNL1        0.0536
      9 C         141.0584  139.9694  160.8159 C.ar    1  UNL1        0.0045
     10 C         141.4975  139.7959  159.3922 C.ar    1  UNL1        0.0001
     11 C         142.5223  138.7571  159.0446 C.ar    1  UNL1       -0.0006
     12 C         143.1078  137.8918  160.1209 C.ar    1  UNL1        0.0001
     13 C         142.6687  138.0653  161.5446 C.ar    1  UNL1        0.0045
     14 N         140.0007  138.5417  163.8243 N.am    1  UNL1       -0.2761
     15 C         141.2048  139.2776  163.3159 C.2     1  UNL1        0.2490
     16 O         141.9697  140.1870  164.2312 O.2     1  UNL1       -0.2699
     17 C         138.3300  139.5122  165.5612 C.3     1  UNL1        0.0233
     18 C         139.5616  138.7152  165.2481 C.3     1  UNL1        0.0938
     19 C         139.2357  137.6322  162.9090 C.3     1  UNL1        0.0938
     20 C         138.1002  138.1730  162.0916 C.3     1  UNL1        0.0233
     21 C         142.5897  137.3410  156.8675 C.ar    1  UNL1       -0.0005
     22 C         141.1810  137.1465  156.3901 C.ar    1  UNL1        0.0013
     23 C         140.8092  135.9039  155.6367 C.ar    1  UNL1        0.0148
     24 C         141.8461  134.8557  155.3606 C.ar    1  UNL1        0.0532
     25 C         143.2547  135.0502  155.8380 C.ar    1  UNL1        0.0148
     26 C         143.6265  136.2928  156.5914 C.ar    1  UNL1        0.0013
     27 N         141.4743  133.6131  154.6071 N.am    1  UNL1       -0.2499
     28 C         141.6637  132.2668  155.2409 C.2     1  UNL1        0.4055
     29 O         142.2250  132.1631  156.6280 O.2     1  UNL1       -0.2261
     30 H         141.1059  133.6811  153.6967 H       1  UNL1        0.1582
     31 O         141.2919  131.0242  154.4874 O.3     1  UNL1       -0.4304
     32 C         139.9011  130.4719  154.5915 C.3     1  UNL1        0.2574
     33 C         146.2051  142.8602  154.9396 C.3     1  UNL1        0.0992
     34 C         147.6644  142.6382  154.6726 C.ar    1  UNL1       -0.0060
     35 C         148.3096  143.2594  153.4693 C.ar    1  UNL1       -0.0006
     36 C         149.7689  143.0374  153.2022 C.ar    1  UNL1        0.0294
     37 C         150.5829  142.1942  154.1385 C.ar    1  UNL1        0.1401
     38 F         152.0421  141.9722  153.8715 F       1  UNL1       -0.2042
     39 C         149.9376  141.5731  155.3417 C.ar    1  UNL1        0.0294
     40 C         148.4783  141.7951  155.6088 C.ar    1  UNL1       -0.0006
@<TRIPOS>BOND
     1    17    18    1
     2    18    14    1
     3    14    19    1
     4    19    20    1
     5    14    15   am
     6    15    16    2
     7    15     8    1
     8     8     9   ar
     9     9    10   ar
    10    10    11   ar
    11    11     1    1
    12     1     2    2
    13     2     3    1
    14     3     4    1
    15     4     5    1
    16     5    33    1
    17    33    34    1
    18    34    35   ar
    19    35    36   ar
    20    36    37   ar
    21    37    38    1
    22    37    39   ar
    23    39    40   ar
    24     5     6    1
    25     6     7    1
    26     1    21    1
    27    21    22   ar
    28    22    23   ar
    29    23    24   ar
    30    24    27    1
    31    27    28   am
    32    28    29    2
    33    28    31    1
    34    31    32    1
    35    24    25   ar
    36    25    26   ar
    37    11    12   ar
    38    12    13   ar
    39    13     8   ar
    40     7     2    1
    41    26    21   ar
    42    40    34   ar
    43    27    30    1
@<TRIPOS>MOLECULE
*****
 40 43 0 0 0
SMALL
GASTEIGER

@<TRIPOS>ATOM
      1 C         141.3612  139.6556  158.1661 C.2     1  UNL1       -0.0078
      2 C         141.4864  139.5030  159.6530 C.2     1  UNL1       -0.0414
      3 C         141.2362  140.6779  160.5514 C.3     1  UNL1        0.0394
      4 C         141.3614  140.5251  162.0384 C.3     1  UNL1        0.0767
      5 N         141.7368  139.1975  162.6269 N.3     1  UNL1       -0.2683
      6 C         141.9870  138.0226  161.7286 C.3     1  UNL1        0.0767
      7 C         141.8618  138.1753  160.2417 C.3     1  UNL1        0.0394
      8 C         142.1118  136.1309  155.4712 C.ar    1  UNL1        0.0536
      9 C         143.2556  136.9961  155.9105 C.ar    1  UNL1        0.0045
     10 C         143.0054  138.1710  156.8088 C.ar    1  UNL1        0.0001
     11 C         141.6114  138.4807  157.2678 C.ar    1  UNL1       -0.0006
     12 C         140.4676  137.6155  156.8285 C.ar    1  UNL1        0.0001
     13 C         140.7178  136.4406  155.9302 C.ar    1  UNL1        0.0045
     14 N         142.6966  133.6183  155.1633 N.am    1  UNL1       -0.2761
     15 C         142.3620  134.9560  154.5729 C.2     1  UNL1        0.2490
     16 O         142.2777  135.1188  153.0841 O.2     1  UNL1       -0.2699
     17 C         143.4492  131.1526  154.8408 C.3     1  UNL1        0.0233
     18 C         142.9468  132.4434  154.2649 C.3     1  UNL1        0.0938
     19 C         142.7810  133.4555  156.6521 C.3     1  UNL1        0.0938
     20 C         144.0973  133.6229  157.3514 C.3     1  UNL1        0.0233
     21 C         140.9857  140.9832  157.5775 C.ar    1  UNL1       -0.0005
     22 C         139.5410  141.3679  157.4553 C.ar    1  UNL1        0.0013
     23 C         139.1656  142.6955  156.8667 C.ar    1  UNL1        0.0148
     24 C         140.2348  143.6385  156.4003 C.ar    1  UNL1        0.0532
     25 C         141.6795  143.2539  156.5225 C.ar    1  UNL1        0.0148
     26 C         142.0550  141.9262  157.1111 C.ar    1  UNL1        0.0013
     27 N         139.8593  144.9662  155.8117 N.am    1  UNL1       -0.2499
     28 C         139.7936  146.1828  156.6865 C.2     1  UNL1        0.4055
     29 O         140.1033  146.0719  158.1500 O.2     1  UNL1       -0.2261
     30 H         139.6560  145.0390  154.8512 H       1  UNL1        0.1582
     31 O         139.4181  147.5104  156.0979 O.3     1  UNL1       -0.4304
     32 C         139.6302  147.7695  154.6357 C.3     1  UNL1        0.2574
     33 C         141.8620  139.0448  164.1139 C.3     1  UNL1        0.0992
     34 C         140.6336  138.8620  164.9552 C.ar    1  UNL1       -0.0060
     35 C         139.7186  137.7002  164.7039 C.ar    1  UNL1       -0.0006
     36 C         138.4903  137.5174  165.5452 C.ar    1  UNL1        0.0294
     37 C         138.1769  138.4964  166.6376 C.ar    1  UNL1        0.1401
     38 F         136.9485  138.3136  167.4789 F       1  UNL1       -0.2042
     39 C         139.0919  139.6581  166.8888 C.ar    1  UNL1        0.0294
     40 C         140.3202  139.8409  166.0476 C.ar    1  UNL1       -0.0006
@<TRIPOS>BOND
     1    17    18    1
     2    18    14    1
     3    14    19    1
     4    19    20    1
     5    14    15   am
     6    15    16    2
     7    15     8    1
     8     8     9   ar
     9     9    10   ar
    10    10    11   ar
    11    11     1    1
    12     1     2    2
    13     2     3    1
    14     3     4    1
    15     4     5    1
    16     5    33    1
    17    33    34    1
    18    34    35   ar
    19    35    36   ar
    20    36    37   ar
    21    37    38    1
    22    37    39   ar
    23    39    40   ar
    24     5     6    1
    25     6     7    1
    26     1    21    1
    27    21    22   ar
    28    22    23   ar
    29    23    24   ar
    30    24    27    1
    31    27    28   am
    32    28    29    2
    33    28    31    1
    34    31    32    1
    35    24    25   ar
    36    25    26   ar
    37    11    12   ar
    38    12    13   ar
    39    13     8   ar
    40     7     2    1
    41    26    21   ar
    42    40    34   ar
    43    27    30    1
@<TRIPOS>MOLECULE
*****
 40 43 0 0 0
SMALL
GASTEIGER

@<TRIPOS>ATOM
      1 C         140.6766  141.0832  158.3752 C.2     1  UNL1       -0.0078
      2 C         141.4712  139.9639  157.7705 C.2     1  UNL1       -0.0414
      3 C         141.9942  140.0867  156.3701 C.3     1  UNL1        0.0394
      4 C         142.7889  138.9673  155.7654 C.3     1  UNL1        0.0767
      5 N         143.0604  137.7252  156.5611 N.3     1  UNL1       -0.2683
      6 C         142.5373  137.6023  157.9616 C.3     1  UNL1        0.0767
      7 C         141.7427  138.7216  158.5663 C.3     1  UNL1        0.0394
      8 C         139.1074  140.7146  162.5766 C.ar    1  UNL1        0.0536
      9 C         140.5069  141.1989  162.3385 C.ar    1  UNL1        0.0045
     10 C         141.0300  141.3218  160.9381 C.ar    1  UNL1        0.0001
     11 C         140.1535  140.9603  159.7757 C.ar    1  UNL1       -0.0006
     12 C         138.7540  140.4760  160.0138 C.ar    1  UNL1        0.0001
     13 C         138.2309  140.3532  161.4143 C.ar    1  UNL1        0.0045
     14 N         138.6746  139.2801  164.6991 N.am    1  UNL1       -0.2761
     15 C         138.5843  140.5918  163.9771 C.2     1  UNL1        0.2490
     16 O         137.9710  141.7806  164.6556 O.2     1  UNL1       -0.2699
     17 C         137.7577  137.8137  166.6379 C.3     1  UNL1        0.0233
     18 C         138.1515  139.1573  166.0995 C.3     1  UNL1        0.0938
     19 C         139.2880  138.0912  164.0206 C.3     1  UNL1        0.0938
     20 C         140.7103  137.7132  164.3106 C.3     1  UNL1        0.0233
     21 C         140.4051  142.3253  157.5795 C.ar    1  UNL1       -0.0005
     22 C         139.0992  142.4837  156.8586 C.ar    1  UNL1        0.0013
     23 C         138.8276  143.7259  156.0628 C.ar    1  UNL1        0.0148
     24 C         139.8619  144.8097  155.9879 C.ar    1  UNL1        0.0532
     25 C         141.1678  144.6513  156.7088 C.ar    1  UNL1        0.0148
     26 C         141.4394  143.4091  157.5046 C.ar    1  UNL1        0.0013
     27 N         139.5904  146.0519  155.1921 N.am    1  UNL1       -0.2499
     28 C         139.2373  147.3298  155.8936 C.2     1  UNL1        0.4055
     29 O         139.1557  147.3656  157.3910 O.2     1  UNL1       -0.2261
     30 H         139.6439  146.0284  154.2093 H       1  UNL1        0.1582
     31 O         138.9657  148.5719  155.0978 O.3     1  UNL1       -0.4304
     32 C         138.5112  149.8223  155.7908 C.3     1  UNL1        0.2574
     33 C         143.8550  136.6058  155.9564 C.3     1  UNL1        0.0992
     34 C         143.2776  135.2226  155.8976 C.ar    1  UNL1       -0.0060
     35 C         142.3574  134.8411  154.7760 C.ar    1  UNL1       -0.0006
     36 C         141.7799  133.4580  154.7172 C.ar    1  UNL1        0.0294
     37 C         142.1227  132.4563  155.7799 C.ar    1  UNL1        0.1401
     38 F         141.5452  131.0732  155.7211 F       1  UNL1       -0.2042
     39 C         143.0428  132.8378  156.9014 C.ar    1  UNL1        0.0294
     40 C         143.6202  134.2210  156.9602 C.ar    1  UNL1       -0.0006
@<TRIPOS>BOND
     1    17    18    1
     2    18    14    1
     3    14    19    1
     4    19    20    1
     5    14    15   am
     6    15    16    2
     7    15     8    1
     8     8     9   ar
     9     9    10   ar
    10    10    11   ar
    11    11     1    1
    12     1     2    2
    13     2     3    1
    14     3     4    1
    15     4     5    1
    16     5    33    1
    17    33    34    1
    18    34    35   ar
    19    35    36   ar
    20    36    37   ar
    21    37    38    1
    22    37    39   ar
    23    39    40   ar
    24     5     6    1
    25     6     7    1
    26     1    21    1
    27    21    22   ar
    28    22    23   ar
    29    23    24   ar
    30    24    27    1
    31    27    28   am
    32    28    29    2
    33    28    31    1
    34    31    32    1
    35    24    25   ar
    36    25    26   ar
    37    11    12   ar
    38    12    13   ar
    39    13     8   ar
    40     7     2    1
    41    26    21   ar
    42    40    34   ar
    43    27    30    1
@<TRIPOS>MOLECULE
*****
 40 43 0 0 0
SMALL
GASTEIGER

@<TRIPOS>ATOM
      1 C         141.4499  139.3333  157.9819 C.2     1  UNL1       -0.0078
      2 C         141.5758  139.2553  159.4745 C.2     1  UNL1       -0.0414
      3 C         142.0571  137.9905  160.1216 C.3     1  UNL1        0.0394
      4 C         142.1830  137.9126  161.6143 C.3     1  UNL1        0.0767
      5 N         141.8277  139.0995  162.4599 N.3     1  UNL1       -0.2683
      6 C         141.3465  140.3643  161.8128 C.3     1  UNL1        0.0767
      7 C         141.2205  140.4422  160.3202 C.3     1  UNL1        0.0394
      8 C         140.0061  143.1277  156.0407 C.ar    1  UNL1        0.0536
      9 C         141.4557  142.7501  155.9631 C.ar    1  UNL1        0.0045
     10 C         141.9370  141.4853  156.6101 C.ar    1  UNL1        0.0001
     11 C         140.9687  140.5981  157.3348 C.ar    1  UNL1       -0.0006
     12 C         139.5191  140.9757  157.4125 C.ar    1  UNL1        0.0001
     13 C         139.0378  142.2405  156.7655 C.ar    1  UNL1        0.0045
     14 N         139.6274  145.6965  156.1278 N.am    1  UNL1       -0.2761
     15 C         139.5249  144.3925  155.3937 C.2     1  UNL1        0.2490
     16 O         138.9411  144.3533  154.0125 O.2     1  UNL1       -0.2699
     17 C         140.0183  147.6768  154.4920 C.3     1  UNL1        0.0233
     18 C         139.1461  146.9613  155.4808 C.3     1  UNL1        0.0938
     19 C         140.2111  145.7358  157.5091 C.3     1  UNL1        0.0938
     20 C         141.6850  145.9435  157.6947 C.3     1  UNL1        0.0233
     21 C         141.8052  138.1464  157.1363 C.ar    1  UNL1       -0.0005
     22 C         143.2388  137.8771  156.7862 C.ar    1  UNL1        0.0013
     23 C         143.5941  136.6903  155.9406 C.ar    1  UNL1        0.0148
     24 C         142.5159  135.7727  155.4451 C.ar    1  UNL1        0.0532
     25 C         141.0824  136.0419  155.7951 C.ar    1  UNL1        0.0148
     26 C         140.7271  137.2288  156.6408 C.ar    1  UNL1        0.0013
     27 N         142.8713  134.5857  154.5994 N.am    1  UNL1       -0.2499
     28 C         142.7620  133.2013  155.1663 C.2     1  UNL1        0.4055
     29 O         142.2973  133.0037  156.5787 O.2     1  UNL1       -0.2261
     30 H         143.1763  134.7154  153.6724 H       1  UNL1        0.1582
     31 O         143.1174  132.0145  154.3206 O.3     1  UNL1       -0.4304
     32 C         144.0373  130.9588  154.8585 C.3     1  UNL1        0.2574
     33 C         141.9537  139.0216  163.9526 C.3     1  UNL1        0.0992
     34 C         140.7262  138.8746  164.8022 C.ar    1  UNL1       -0.0060
     35 C         139.8090  137.7051  164.5989 C.ar    1  UNL1       -0.0006
     36 C         138.5816  137.5581  165.4484 C.ar    1  UNL1        0.0294
     37 C         138.2713  138.5806  166.5012 C.ar    1  UNL1        0.1401
     38 F         137.0438  138.4336  167.3508 F       1  UNL1       -0.2042
     39 C         139.1884  139.7500  166.7044 C.ar    1  UNL1        0.0294
     40 C         140.4158  139.8970  165.8549 C.ar    1  UNL1       -0.0006
@<TRIPOS>BOND
     1    17    18    1
     2    18    14    1
     3    14    19    1
     4    19    20    1
     5    14    15   am
     6    15    16    2
     7    15     8    1
     8     8     9   ar
     9     9    10   ar
    10    10    11   ar
    11    11     1    1
    12     1     2    2
    13     2     3    1
    14     3     4    1
    15     4     5    1
    16     5    33    1
    17    33    34    1
    18    34    35   ar
    19    35    36   ar
    20    36    37   ar
    21    37    38    1
    22    37    39   ar
    23    39    40   ar
    24     5     6    1
    25     6     7    1
    26     1    21    1
    27    21    22   ar
    28    22    23   ar
    29    23    24   ar
    30    24    27    1
    31    27    28   am
    32    28    29    2
    33    28    31    1
    34    31    32    1
    35    24    25   ar
    36    25    26   ar
    37    11    12   ar
    38    12    13   ar
    39    13     8   ar
    40     7     2    1
    41    26    21   ar
    42    40    34   ar
    43    27    30    1
@<TRIPOS>MOLECULE
*****
 40 43 0 0 0
SMALL
GASTEIGER

@<TRIPOS>ATOM
      1 C         140.8028  140.7822  158.6629 C.2     1  UNL1       -0.0078
      2 C         141.6292  139.7770  157.9168 C.2     1  UNL1       -0.0414
      3 C         141.8546  138.4124  158.4971 C.3     1  UNL1        0.0394
      4 C         142.6809  137.4071  157.7509 C.3     1  UNL1        0.0767
      5 N         143.2818  137.7666  156.4244 N.3     1  UNL1       -0.2683
      6 C         143.0564  139.1313  155.8440 C.3     1  UNL1        0.0767
      7 C         142.2301  140.1365  156.5902 C.3     1  UNL1        0.0394
      8 C         140.1265  144.8762  156.9217 C.ar    1  UNL1        0.0536
      9 C         139.1507  143.7719  156.6424 C.ar    1  UNL1        0.0045
     10 C         139.3761  142.4072  157.2228 C.ar    1  UNL1        0.0001
     11 C         140.5774  142.1469  158.0825 C.ar    1  UNL1       -0.0006
     12 C         141.5533  143.2513  158.3618 C.ar    1  UNL1        0.0001
     13 C         141.3278  144.6159  157.7814 C.ar    1  UNL1        0.0045
     14 N         140.3160  146.5335  154.9299 N.am    1  UNL1       -0.2761
     15 C         139.9011  146.2409  156.3413 C.2     1  UNL1        0.2490
     16 O         139.2608  147.3129  157.1724 O.2     1  UNL1       -0.2699
     17 C         140.6880  148.2563  153.0210 C.3     1  UNL1        0.0233
     18 C         140.0906  147.8982  154.3495 C.3     1  UNL1        0.0938
     19 C         140.9563  145.4615  154.0988 C.3     1  UNL1        0.0938
     20 C         142.4266  145.1927  154.2247 C.3     1  UNL1        0.0233
     21 C         140.2020  140.4227  159.9894 C.ar    1  UNL1       -0.0005
     22 C         138.8963  139.6866  160.0465 C.ar    1  UNL1        0.0013
     23 C         138.2954  139.3271  161.3731 C.ar    1  UNL1        0.0148
     24 C         139.0002  139.7038  162.6425 C.ar    1  UNL1        0.0532
     25 C         140.3058  140.4399  162.5854 C.ar    1  UNL1        0.0148
     26 C         140.9068  140.7994  161.2588 C.ar    1  UNL1        0.0013
     27 N         138.3992  139.3442  163.9690 N.am    1  UNL1       -0.2499
     28 C         138.8735  138.1241  164.7013 C.2     1  UNL1        0.4055
     29 O         139.9487  137.2634  164.1070 O.2     1  UNL1       -0.2261
     30 H         137.6935  139.9091  164.3591 H       1  UNL1        0.1582
     31 O         138.2726  137.7646  166.0278 O.3     1  UNL1       -0.4304
     32 C         137.9207  138.8434  167.0089 C.3     1  UNL1        0.2574
     33 C         144.1082  136.7614  155.6782 C.3     1  UNL1        0.0992
     34 C         143.5678  135.3850  155.4263 C.ar    1  UNL1       -0.0060
     35 C         142.7426  135.1155  154.2030 C.ar    1  UNL1       -0.0006
     36 C         142.2021  133.7391  153.9510 C.ar    1  UNL1        0.0294
     37 C         142.4869  132.6322  154.9225 C.ar    1  UNL1        0.1401
     38 F         141.9465  131.2558  154.6705 F       1  UNL1       -0.2042
     39 C         143.3121  132.9016  156.1457 C.ar    1  UNL1        0.0294
     40 C         143.8525  134.2780  156.3976 C.ar    1  UNL1       -0.0006
@<TRIPOS>BOND
     1    17    18    1
     2    18    14    1
     3    14    19    1
     4    19    20    1
     5    14    15   am
     6    15    16    2
     7    15     8    1
     8     8     9   ar
     9     9    10   ar
    10    10    11   ar
    11    11     1    1
    12     1     2    2
    13     2     3    1
    14     3     4    1
    15     4     5    1
    16     5    33    1
    17    33    34    1
    18    34    35   ar
    19    35    36   ar
    20    36    37   ar
    21    37    38    1
    22    37    39   ar
    23    39    40   ar
    24     5     6    1
    25     6     7    1
    26     1    21    1
    27    21    22   ar
    28    22    23   ar
    29    23    24   ar
    30    24    27    1
    31    27    28   am
    32    28    29    2
    33    28    31    1
    34    31    32    1
    35    24    25   ar
    36    25    26   ar
    37    11    12   ar
    38    12    13   ar
    39    13     8   ar
    40     7     2    1
    41    26    21   ar
    42    40    34   ar
    43    27    30    1
@<TRIPOS>MOLECULE
*****
 40 43 0 0 0
SMALL
GASTEIGER

@<TRIPOS>ATOM
      1 C         142.2692  139.4689  160.3530 C.2     1  UNL1       -0.0078
      2 C         142.4939  138.4212  159.3034 C.2     1  UNL1       -0.0414
      3 C         142.9862  137.0598  159.6959 C.3     1  UNL1        0.0394
      4 C         143.2109  136.0120  158.6462 C.3     1  UNL1        0.0767
      5 N         142.9434  136.3258  157.2040 N.3     1  UNL1       -0.2683
      6 C         142.4511  137.6873  156.8115 C.3     1  UNL1        0.0767
      7 C         142.2264  138.7350  157.8611 C.3     1  UNL1        0.0394
      8 C         140.7924  143.5533  159.1754 C.ar    1  UNL1        0.0536
      9 C         142.2635  143.3026  159.3270 C.ar    1  UNL1        0.0045
     10 C         142.7558  141.9411  159.7195 C.ar    1  UNL1        0.0001
     11 C         141.7769  140.8304  159.9605 C.ar    1  UNL1       -0.0006
     12 C         140.3059  141.0811  159.8089 C.ar    1  UNL1        0.0001
     13 C         139.8136  142.4426  159.4164 C.ar    1  UNL1        0.0045
     14 N         140.2162  145.2930  157.3338 N.am    1  UNL1       -0.2761
     15 C         140.3002  144.9148  158.7829 C.2     1  UNL1        0.2490
     16 O         139.8918  145.8981  159.8394 O.2     1  UNL1       -0.2699
     17 C         138.8303  146.8133  155.7470 C.3     1  UNL1        0.0233
     18 C         139.7239  146.6544  156.9413 C.3     1  UNL1        0.0938
     19 C         140.6245  144.3096  156.2772 C.3     1  UNL1        0.0938
     20 C         142.0122  144.3520  155.7093 C.3     1  UNL1        0.0233
     21 C         142.5367  139.1551  161.7952 C.ar    1  UNL1       -0.0005
     22 C         141.5202  138.4003  162.5996 C.ar    1  UNL1        0.0013
     23 C         141.7878  138.0866  164.0418 C.ar    1  UNL1        0.0148
     24 C         143.0718  138.5275  164.6796 C.ar    1  UNL1        0.0532
     25 C         144.0883  139.2823  163.8753 C.ar    1  UNL1        0.0148
     26 C         143.8208  139.5961  162.4330 C.ar    1  UNL1        0.0013
     27 N         143.3393  138.2137  166.1219 N.am    1  UNL1       -0.2499
     28 C         142.8545  139.1438  167.1942 C.2     1  UNL1        0.4055
     29 O         142.1022  140.3877  166.8244 O.2     1  UNL1       -0.2261
     30 H         143.8331  137.3973  166.3646 H       1  UNL1        0.1582
     31 O         143.1220  138.8299  168.6364 O.3     1  UNL1       -0.4304
     32 C         142.1944  139.3394  169.6994 C.3     1  UNL1        0.2574
     33 C         143.1681  135.2781  156.1542 C.3     1  UNL1        0.0992
     34 C         143.3593  133.8450  156.5538 C.ar    1  UNL1       -0.0060
     35 C         144.5302  133.4538  157.4060 C.ar    1  UNL1       -0.0006
     36 C         144.7215  132.0207  157.8055 C.ar    1  UNL1        0.0294
     37 C         143.7418  130.9788  157.3530 C.ar    1  UNL1        0.1401
     38 F         143.9330  129.5457  157.7525 F       1  UNL1       -0.2042
     39 C         142.5710  131.3700  156.5009 C.ar    1  UNL1        0.0294
     40 C         142.3797  132.8031  156.1013 C.ar    1  UNL1       -0.0006
@<TRIPOS>BOND
     1    17    18    1
     2    18    14    1
     3    14    19    1
     4    19    20    1
     5    14    15   am
     6    15    16    2
     7    15     8    1
     8     8     9   ar
     9     9    10   ar
    10    10    11   ar
    11    11     1    1
    12     1     2    2
    13     2     3    1
    14     3     4    1
    15     4     5    1
    16     5    33    1
    17    33    34    1
    18    34    35   ar
    19    35    36   ar
    20    36    37   ar
    21    37    38    1
    22    37    39   ar
    23    39    40   ar
    24     5     6    1
    25     6     7    1
    26     1    21    1
    27    21    22   ar
    28    22    23   ar
    29    23    24   ar
    30    24    27    1
    31    27    28   am
    32    28    29    2
    33    28    31    1
    34    31    32    1
    35    24    25   ar
    36    25    26   ar
    37    11    12   ar
    38    12    13   ar
    39    13     8   ar
    40     7     2    1
    41    26    21   ar
    42    40    34   ar
    43    27    30    1
@<TRIPOS>MOLECULE
*****
 40 43 0 0 0
SMALL
GASTEIGER

@<TRIPOS>ATOM
      1 C         141.4462  138.7385  157.9910 C.2     1  UNL1       -0.0078
      2 C         141.8285  140.0723  157.4211 C.2     1  UNL1       -0.0414
      3 C         142.4121  140.1593  156.0421 C.3     1  UNL1        0.0394
      4 C         142.7944  141.4931  155.4722 C.3     1  UNL1        0.0767
      5 N         142.5932  142.7400  156.2814 N.3     1  UNL1       -0.2683
      6 C         142.0095  142.6530  157.6605 C.3     1  UNL1        0.0767
      7 C         141.6272  141.3192  158.2303 C.3     1  UNL1        0.0394
      8 C         139.6953  138.4777  162.1282 C.ar    1  UNL1        0.0536
      9 C         138.7923  138.6238  160.9395 C.ar    1  UNL1        0.0045
     10 C         139.3759  138.7107  159.5604 C.ar    1  UNL1        0.0001
     11 C         140.8626  138.6516  159.3701 C.ar    1  UNL1       -0.0006
     12 C         141.7656  138.5055  160.5588 C.ar    1  UNL1        0.0001
     13 C         141.1820  138.4185  161.9379 C.ar    1  UNL1        0.0045
     14 N         138.7096  139.6411  164.2317 N.am    1  UNL1       -0.2761
     15 C         139.1117  138.3907  163.5073 C.2     1  UNL1        0.2490
     16 O         138.9302  137.0534  164.1619 O.2     1  UNL1       -0.2699
     17 C         139.0280  139.5688  166.8092 C.3     1  UNL1        0.0233
     18 C         138.1260  139.5541  165.6108 C.3     1  UNL1        0.0938
     19 C         138.8910  140.9785  163.5771 C.3     1  UNL1        0.0938
     20 C         137.7213  141.6647  162.9362 C.3     1  UNL1        0.0233
     21 C         141.6475  137.4917  157.1818 C.ar    1  UNL1       -0.0005
     22 C         140.5831  137.0367  156.2278 C.ar    1  UNL1        0.0013
     23 C         140.7844  135.7899  155.4186 C.ar    1  UNL1        0.0148
     24 C         142.0500  134.9980  155.5633 C.ar    1  UNL1        0.0532
     25 C         143.1144  135.4529  156.5173 C.ar    1  UNL1        0.0148
     26 C         142.9131  136.6998  157.3266 C.ar    1  UNL1        0.0013
     27 N         142.2513  133.7511  154.7541 N.am    1  UNL1       -0.2499
     28 C         142.4408  132.4322  155.4430 C.2     1  UNL1        0.4055
     29 O         142.4291  132.3602  156.9413 O.2     1  UNL1       -0.2261
     30 H         142.2590  133.7983  153.7707 H       1  UNL1        0.1582
     31 O         142.6421  131.1855  154.6338 O.3     1  UNL1       -0.4304
     32 C         143.3256  131.2588  153.3005 C.3     1  UNL1        0.2574
     33 C         142.9755  144.0739  155.7115 C.3     1  UNL1        0.0992
     34 C         141.9213  145.1096  155.4545 C.ar    1  UNL1       -0.0060
     35 C         141.6669  145.5898  154.0563 C.ar    1  UNL1       -0.0006
     36 C         140.6127  146.6255  153.7992 C.ar    1  UNL1        0.0294
     37 C         139.8131  147.1810  154.9403 C.ar    1  UNL1        0.1401
     38 F         138.7590  148.2167  154.6833 F       1  UNL1       -0.2042
     39 C         140.0676  146.7008  156.3384 C.ar    1  UNL1        0.0294
     40 C         141.1217  145.6651  156.5954 C.ar    1  UNL1       -0.0006
@<TRIPOS>BOND
     1    17    18    1
     2    18    14    1
     3    14    19    1
     4    19    20    1
     5    14    15   am
     6    15    16    2
     7    15     8    1
     8     8     9   ar
     9     9    10   ar
    10    10    11   ar
    11    11     1    1
    12     1     2    2
    13     2     3    1
    14     3     4    1
    15     4     5    1
    16     5    33    1
    17    33    34    1
    18    34    35   ar
    19    35    36   ar
    20    36    37   ar
    21    37    38    1
    22    37    39   ar
    23    39    40   ar
    24     5     6    1
    25     6     7    1
    26     1    21    1
    27    21    22   ar
    28    22    23   ar
    29    23    24   ar
    30    24    27    1
    31    27    28   am
    32    28    29    2
    33    28    31    1
    34    31    32    1
    35    24    25   ar
    36    25    26   ar
    37    11    12   ar
    38    12    13   ar
    39    13     8   ar
    40     7     2    1
    41    26    21   ar
    42    40    34   ar
    43    27    30    1
@<TRIPOS>MOLECULE
*****
 40 43 0 0 0
SMALL
GASTEIGER

@<TRIPOS>ATOM
      1 C         142.1871  138.9396  157.3533 C.2     1  UNL1       -0.0078
      2 C         142.5249  138.9566  158.8147 C.2     1  UNL1       -0.0414
      3 C         142.9624  137.6950  159.4980 C.3     1  UNL1        0.0394
      4 C         143.3002  137.7121  160.9595 C.3     1  UNL1        0.0767
      5 N         143.2004  138.9906  161.7374 N.3     1  UNL1       -0.2683
      6 C         142.7629  140.2522  161.0541 C.3     1  UNL1        0.0767
      7 C         142.4251  140.2352  159.5927 C.3     1  UNL1        0.0394
      8 C         140.8745  142.7244  155.3032 C.ar    1  UNL1        0.0536
      9 C         142.3095  142.2931  155.2345 C.ar    1  UNL1        0.0045
     10 C         142.7470  141.0315  155.9179 C.ar    1  UNL1        0.0001
     11 C         141.7496  140.2012  156.6699 C.ar    1  UNL1       -0.0006
     12 C         140.3146  140.6325  156.7386 C.ar    1  UNL1        0.0001
     13 C         139.8771  141.8941  156.0553 C.ar    1  UNL1        0.0045
     14 N         140.6137  145.3093  155.3035 N.am    1  UNL1       -0.2761
     15 C         140.4370  143.9860  154.6198 C.2     1  UNL1        0.2490
     16 O         139.8227  143.9242  153.2528 O.2     1  UNL1       -0.2699
     17 C         138.8581  147.1953  154.9705 C.3     1  UNL1        0.0233
     18 C         140.1762  146.5709  154.6201 C.3     1  UNL1        0.0938
     19 C         141.2280  145.3712  156.6706 C.3     1  UNL1        0.0938
     20 C         140.3503  145.4026  157.8865 C.3     1  UNL1        0.0233
     21 C         142.2868  137.6611  156.5753 C.ar    1  UNL1       -0.0005
     22 C         141.0471  136.8805  156.2531 C.ar    1  UNL1        0.0013
     23 C         141.1468  135.6020  155.4751 C.ar    1  UNL1        0.0148
     24 C         142.4863  135.1039  155.0193 C.ar    1  UNL1        0.0532
     25 C         143.7260  135.8844  155.3415 C.ar    1  UNL1        0.0148
     26 C         143.6263  137.1630  156.1196 C.ar    1  UNL1        0.0013
     27 N         142.5860  133.8253  154.2413 N.am    1  UNL1       -0.2499
     28 C         142.4554  132.5071  154.9450 C.2     1  UNL1        0.4055
     29 O         142.2251  132.4674  156.4267 O.2     1  UNL1       -0.2261
     30 H         142.7372  133.8513  153.2688 H       1  UNL1        0.1582
     31 O         142.5551  131.2285  154.1670 O.3     1  UNL1       -0.4304
     32 C         142.9804  131.2569  152.7287 C.3     1  UNL1        0.2574
     33 C         143.5382  139.0076  163.1989 C.3     1  UNL1        0.0992
     34 C         143.9021  140.2991  163.8695 C.ar    1  UNL1       -0.0060
     35 C         142.9385  140.9495  164.8174 C.ar    1  UNL1       -0.0006
     36 C         143.3025  142.2409  165.4881 C.ar    1  UNL1        0.0294
     37 C         144.6300  142.8819  165.2108 C.ar    1  UNL1        0.1401
     38 F         144.9940  144.1734  165.8814 F       1  UNL1       -0.2042
     39 C         145.5935  142.2315  164.2629 C.ar    1  UNL1        0.0294
     40 C         145.2296  140.9401  163.5923 C.ar    1  UNL1       -0.0006
@<TRIPOS>BOND
     1    17    18    1
     2    18    14    1
     3    14    19    1
     4    19    20    1
     5    14    15   am
     6    15    16    2
     7    15     8    1
     8     8     9   ar
     9     9    10   ar
    10    10    11   ar
    11    11     1    1
    12     1     2    2
    13     2     3    1
    14     3     4    1
    15     4     5    1
    16     5    33    1
    17    33    34    1
    18    34    35   ar
    19    35    36   ar
    20    36    37   ar
    21    37    38    1
    22    37    39   ar
    23    39    40   ar
    24     5     6    1
    25     6     7    1
    26     1    21    1
    27    21    22   ar
    28    22    23   ar
    29    23    24   ar
    30    24    27    1
    31    27    28   am
    32    28    29    2
    33    28    31    1
    34    31    32    1
    35    24    25   ar
    36    25    26   ar
    37    11    12   ar
    38    12    13   ar
    39    13     8   ar
    40     7     2    1
    41    26    21   ar
    42    40    34   ar
    43    27    30    1
@<TRIPOS>MOLECULE
*****
 40 43 0 0 0
SMALL
GASTEIGER

@<TRIPOS>ATOM
      1 C         142.2328  138.7509  157.6106 C.2     1  UNL1       -0.0078
      2 C         142.4376  140.1221  157.0382 C.2     1  UNL1       -0.0414
      3 C         142.4936  140.3137  155.5516 C.3     1  UNL1        0.0394
      4 C         142.6984  141.6850  154.9792 C.3     1  UNL1        0.0767
      5 N         142.8473  142.8647  155.8935 N.3     1  UNL1       -0.2683
      6 C         142.7913  142.6732  157.3802 C.3     1  UNL1        0.0767
      7 C         142.5865  141.3020  157.9526 C.3     1  UNL1        0.0394
      8 C         142.0649  138.1763  162.0706 C.ar    1  UNL1        0.0536
      9 C         140.8420  138.6225  161.3253 C.ar    1  UNL1        0.0045
     10 C         140.8980  138.8140  159.8387 C.ar    1  UNL1        0.0001
     11 C         142.1768  138.5593  159.0973 C.ar    1  UNL1       -0.0006
     12 C         143.3996  138.1131  159.8425 C.ar    1  UNL1        0.0001
     13 C         143.3437  137.9216  161.3292 C.ar    1  UNL1        0.0045
     14 N         142.6898  138.9649  164.4659 N.am    1  UNL1       -0.2761
     15 C         142.0089  137.9848  163.5573 C.2     1  UNL1        0.2490
     16 O         141.2720  136.8131  164.1353 O.2     1  UNL1       -0.2699
     17 C         143.7325  138.0320  166.6551 C.3     1  UNL1        0.0233
     18 C         142.6338  138.7734  165.9526 C.3     1  UNL1        0.0938
     19 C         143.4268  140.1366  163.8879 C.3     1  UNL1        0.0938
     20 C         144.9266  140.1433  163.8673 C.3     1  UNL1        0.0233
     21 C         142.0839  137.5711  156.6963 C.ar    1  UNL1       -0.0005
     22 C         143.2970  136.8087  156.2520 C.ar    1  UNL1        0.0013
     23 C         143.1481  135.6290  155.3377 C.ar    1  UNL1        0.0148
     24 C         141.7862  135.2116  154.8676 C.ar    1  UNL1        0.0532
     25 C         140.5732  135.9739  155.3118 C.ar    1  UNL1        0.0148
     26 C         140.7220  137.1537  156.2261 C.ar    1  UNL1        0.0013
     27 N         141.6374  134.0318  153.9532 N.am    1  UNL1       -0.2499
     28 C         141.5690  132.6457  154.5224 C.2     1  UNL1        0.4055
     29 O         141.6494  132.4393  156.0060 O.2     1  UNL1       -0.2261
     30 H         141.5846  134.1672  152.9795 H       1  UNL1        0.1582
     31 O         141.4201  131.4660  153.6081 O.3     1  UNL1       -0.4304
     32 C         142.5973  130.5784  153.3313 C.3     1  UNL1        0.2574
     33 C         143.0522  144.2361  155.3212 C.3     1  UNL1        0.0992
     34 C         141.9165  145.2157  155.2962 C.ar    1  UNL1       -0.0060
     35 C         141.5032  145.8520  154.0022 C.ar    1  UNL1       -0.0006
     36 C         140.3675  146.8316  153.9772 C.ar    1  UNL1        0.0294
     37 C         139.6451  147.1748  155.2462 C.ar    1  UNL1        0.1401
     38 F         138.5094  148.1544  155.2212 F       1  UNL1       -0.2042
     39 C         140.0583  146.5385  156.5401 C.ar    1  UNL1        0.0294
     40 C         141.1940  145.5589  156.5651 C.ar    1  UNL1       -0.0006
@<TRIPOS>BOND
     1    17    18    1
     2    18    14    1
     3    14    19    1
     4    19    20    1
     5    14    15   am
     6    15    16    2
     7    15     8    1
     8     8     9   ar
     9     9    10   ar
    10    10    11   ar
    11    11     1    1
    12     1     2    2
    13     2     3    1
    14     3     4    1
    15     4     5    1
    16     5    33    1
    17    33    34    1
    18    34    35   ar
    19    35    36   ar
    20    36    37   ar
    21    37    38    1
    22    37    39   ar
    23    39    40   ar
    24     5     6    1
    25     6     7    1
    26     1    21    1
    27    21    22   ar
    28    22    23   ar
    29    23    24   ar
    30    24    27    1
    31    27    28   am
    32    28    29    2
    33    28    31    1
    34    31    32    1
    35    24    25   ar
    36    25    26   ar
    37    11    12   ar
    38    12    13   ar
    39    13     8   ar
    40     7     2    1
    41    26    21   ar
    42    40    34   ar
    43    27    30    1
