@<TRIPOS>MOLECULE
*****
 35 39 0 0 0
SMALL
GASTEIGER

@<TRIPOS>ATOM
      1 C         142.2838  141.0669  167.9722 C.ar    1  UNL1        0.1424
      2 C         143.3366  141.9777  168.5306 C.ar    1  UNL1        0.0371
      3 C         143.1185  142.6556  169.8508 C.ar    1  UNL1        0.0047
      4 C         141.8475  142.4226  170.6126 C.ar    1  UNL1        0.0195
      5 C         140.7947  141.5117  170.0542 C.ar    1  UNL1        0.0887
      6 N         139.5237  141.2787  170.8160 N.ar    1  UNL1       -0.2238
      7 C         138.4709  140.3679  170.2576 C.ar    1  UNL1        0.2000
      8 N         138.6890  139.6900  168.9373 N.ar    1  UNL1       -0.2088
      9 C         139.9600  139.9230  168.1756 C.ar    1  UNL1        0.1383
     10 C         141.0128  140.8339  168.7340 C.ar    1  UNL1        0.0833
     11 N         140.1781  139.2451  166.8554 N.pl3   1  UNL1       -0.2977
     12 H         140.7924  138.4784  166.7913 H       1  UNL1        0.1536
     13 C         139.4604  139.7354  165.6328 C.ar    1  UNL1        0.0504
     14 C         138.9530  141.1458  165.5762 C.ar    1  UNL1        0.0178
     15 C         138.2353  141.6361  164.3537 C.ar    1  UNL1        0.0391
     16 C         138.0250  140.7160  163.1879 C.ar    1  UNL1        0.1496
     17 C         138.5324  139.3056  163.2446 C.ar    1  UNL1        0.0928
     18 CL        138.3220  138.3854  162.0788 Cl      1  UNL1       -0.0790
     19 C         139.2501  138.8153  164.4671 C.ar    1  UNL1        0.0291
     20 O         137.3072  141.2063  161.9654 O.3     1  UNL1       -0.4681
     21 C         138.0754  141.8659  160.8587 C.3     1  UNL1        0.2508
     22 C         138.9034  143.0839  161.1429 C.ar    1  UNL1        0.1026
     23 C         140.2683  143.2213  160.5361 C.ar    1  UNL1        0.0185
     24 C         141.0963  144.4393  160.8203 C.ar    1  UNL1        0.0029
     25 C         140.5595  145.5200  161.7113 C.ar    1  UNL1        0.0207
     26 C         139.1946  145.3826  162.3181 C.ar    1  UNL1        0.0986
     27 N         138.3666  144.1646  162.0339 N.ar    1  UNL1       -0.2445
     28 O         142.5020  140.3890  166.6520 O.3     1  UNL1       -0.4789
     29 C         144.5199  143.5377  161.9601 C.3     1  UNL1        0.0896
     30 N         144.0154  142.7505  163.1331 N.3     1  UNL1       -0.2713
     31 C         142.8236  143.2347  163.9046 C.3     1  UNL1        0.0758
     32 C         142.3192  142.4475  165.0776 C.3     1  UNL1        0.0609
     33 C         143.0064  141.1762  165.4790 C.3     1  UNL1        0.1687
     34 C         144.1982  140.6919  164.7075 C.3     1  UNL1        0.0609
     35 C         144.7027  141.4791  163.5346 C.3     1  UNL1        0.0758
@<TRIPOS>BOND
     1    29    30    1
     2    30    31    1
     3    31    32    1
     4    32    33    1
     5    33    28    1
     6    28     1    1
     7     1     2   ar
     8     2     3   ar
     9     3     4   ar
    10     4     5   ar
    11     5     6   ar
    12     6     7   ar
    13     7     8   ar
    14     8     9   ar
    15     9    11    1
    16    11    13    1
    17    13    14   ar
    18    14    15   ar
    19    15    16   ar
    20    16    20    1
    21    20    21    1
    22    21    22    1
    23    22    23   ar
    24    23    24   ar
    25    24    25   ar
    26    25    26   ar
    27    26    27   ar
    28    16    17   ar
    29    17    18    1
    30    17    19   ar
    31     9    10   ar
    32    33    34    1
    33    34    35    1
    34    35    30    1
    35    10     1   ar
    36    10     5   ar
    37    19    13   ar
    38    27    22   ar
    39    11    12    1
@<TRIPOS>MOLECULE
*****
 35 39 0 0 0
SMALL
GASTEIGER

@<TRIPOS>ATOM
      1 C         141.5265  140.0341  168.0773 C.ar    1  UNL1        0.1424
      2 C         142.3892  139.0565  168.8191 C.ar    1  UNL1        0.0371
      3 C         142.9210  139.4057  170.1774 C.ar    1  UNL1        0.0047
      4 C         142.5902  140.7325  170.7940 C.ar    1  UNL1        0.0195
      5 C         141.7276  141.7100  170.0523 C.ar    1  UNL1        0.0887
      6 N         141.3967  143.0368  170.6690 N.ar    1  UNL1       -0.2238
      7 C         140.5341  144.0144  169.9273 C.ar    1  UNL1        0.2000
      8 N         140.0022  143.6652  168.5688 N.ar    1  UNL1       -0.2088
      9 C         140.3330  142.3384  167.9522 C.ar    1  UNL1        0.1383
     10 C         141.1957  141.3608  168.6940 C.ar    1  UNL1        0.0833
     11 N         139.8012  141.9892  166.5938 N.pl3   1  UNL1       -0.2977
     12 H         139.4367  141.0906  166.4240 H       1  UNL1        0.1536
     13 C         139.8247  143.0092  165.4942 C.ar    1  UNL1        0.0504
     14 C         138.5480  143.4119  164.8174 C.ar    1  UNL1        0.0178
     15 C         138.5715  144.4318  163.7178 C.ar    1  UNL1        0.0391
     16 C         139.8716  145.0490  163.2950 C.ar    1  UNL1        0.1496
     17 C         141.1482  144.6463  163.9717 C.ar    1  UNL1        0.0928
     18 CL        142.4483  145.2635  163.5488 Cl      1  UNL1       -0.0790
     19 C         141.1248  143.6263  165.0713 C.ar    1  UNL1        0.0291
     20 O         139.8950  146.0690  162.1953 O.3     1  UNL1       -0.4681
     21 C         140.1805  145.6450  160.7851 C.3     1  UNL1        0.2508
     22 C         140.2268  144.1872  160.4350 C.ar    1  UNL1        0.1026
     23 C         141.5402  143.4631  160.4100 C.ar    1  UNL1        0.0185
     24 C         141.5864  142.0053  160.0599 C.ar    1  UNL1        0.0029
     25 C         140.3192  141.2715  159.7348 C.ar    1  UNL1        0.0207
     26 C         139.0057  141.9955  159.7599 C.ar    1  UNL1        0.0986
     27 N         138.9595  143.4534  160.1100 N.ar    1  UNL1       -0.2445
     28 O         140.9947  139.6849  166.7189 O.3     1  UNL1       -0.4789
     29 C         144.4631  140.3722  161.8715 C.3     1  UNL1        0.0896
     30 N         143.5960  140.2004  163.0834 N.3     1  UNL1       -0.2713
     31 C         142.2967  139.4585  162.9768 C.3     1  UNL1        0.0758
     32 C         141.4296  139.2866  164.1887 C.3     1  UNL1        0.0609
     33 C         141.8618  139.8567  165.5071 C.3     1  UNL1        0.1687
     34 C         143.1611  140.5987  165.6137 C.3     1  UNL1        0.0609
     35 C         144.0282  140.7705  164.4018 C.3     1  UNL1        0.0758
@<TRIPOS>BOND
     1    29    30    1
     2    30    31    1
     3    31    32    1
     4    32    33    1
     5    33    28    1
     6    28     1    1
     7     1     2   ar
     8     2     3   ar
     9     3     4   ar
    10     4     5   ar
    11     5     6   ar
    12     6     7   ar
    13     7     8   ar
    14     8     9   ar
    15     9    11    1
    16    11    13    1
    17    13    14   ar
    18    14    15   ar
    19    15    16   ar
    20    16    20    1
    21    20    21    1
    22    21    22    1
    23    22    23   ar
    24    23    24   ar
    25    24    25   ar
    26    25    26   ar
    27    26    27   ar
    28    16    17   ar
    29    17    18    1
    30    17    19   ar
    31     9    10   ar
    32    33    34    1
    33    34    35    1
    34    35    30    1
    35    10     1   ar
    36    10     5   ar
    37    19    13   ar
    38    27    22   ar
    39    11    12    1
@<TRIPOS>MOLECULE
*****
 35 39 0 0 0
SMALL
GASTEIGER

@<TRIPOS>ATOM
      1 C         140.5556  140.1302  167.8307 C.ar    1  UNL1        0.1424
      2 C         139.1985  139.6681  168.2720 C.ar    1  UNL1        0.0371
      3 C         138.5964  140.2084  169.5351 C.ar    1  UNL1        0.0047
      4 C         139.3513  141.2108  170.3569 C.ar    1  UNL1        0.0195
      5 C         140.7084  141.6729  169.9156 C.ar    1  UNL1        0.0887
      6 N         141.4633  142.6753  170.7373 N.ar    1  UNL1       -0.2238
      7 C         142.8204  143.1373  170.2960 C.ar    1  UNL1        0.2000
      8 N         143.4226  142.5970  169.0329 N.ar    1  UNL1       -0.2088
      9 C         142.6677  141.5947  168.2111 C.ar    1  UNL1        0.1383
     10 C         141.3105  141.1326  168.6525 C.ar    1  UNL1        0.0833
     11 N         143.2698  141.0543  166.9480 N.pl3   1  UNL1       -0.2977
     12 H         143.6700  140.1549  166.9389 H       1  UNL1        0.1536
     13 C         143.2623  141.8845  165.6986 C.ar    1  UNL1        0.0504
     14 C         144.3589  141.7274  164.6872 C.ar    1  UNL1        0.0178
     15 C         144.3514  142.5575  163.4379 C.ar    1  UNL1        0.0391
     16 C         143.2474  143.5447  163.2000 C.ar    1  UNL1        0.1496
     17 C         142.1509  143.7018  164.2114 C.ar    1  UNL1        0.0928
     18 CL        141.0468  144.6890  163.9734 Cl      1  UNL1       -0.0790
     19 C         142.1583  142.8717  165.4607 C.ar    1  UNL1        0.0291
     20 O         143.2399  144.3748  161.9506 O.3     1  UNL1       -0.4681
     21 C         142.4751  143.9109  160.7465 C.3     1  UNL1        0.2508
     22 C         142.3638  142.4453  160.4475 C.ar    1  UNL1        0.1026
     23 C         143.4936  141.7307  159.7671 C.ar    1  UNL1        0.0185
     24 C         143.3823  140.2650  159.4682 C.ar    1  UNL1        0.0029
     25 C         142.1411  139.5139  159.8497 C.ar    1  UNL1        0.0207
     26 C         141.0113  140.2285  160.5301 C.ar    1  UNL1        0.0986
     27 N         141.1227  141.6942  160.8290 N.ar    1  UNL1       -0.2445
     28 O         141.1578  139.5899  166.5675 O.3     1  UNL1       -0.4789
     29 C         137.6915  138.6211  161.7669 C.3     1  UNL1        0.0896
     30 N         138.5581  138.8633  162.9671 N.3     1  UNL1       -0.2713
     31 C         139.2766  137.7180  163.6168 C.3     1  UNL1        0.0758
     32 C         140.1432  137.9603  164.8169 C.3     1  UNL1        0.0609
     33 C         140.2912  139.3477  165.3674 C.3     1  UNL1        0.1687
     34 C         139.5727  140.4930  164.7177 C.3     1  UNL1        0.0609
     35 C         138.7062  140.2508  163.5175 C.3     1  UNL1        0.0758
@<TRIPOS>BOND
     1    29    30    1
     2    30    31    1
     3    31    32    1
     4    32    33    1
     5    33    28    1
     6    28     1    1
     7     1     2   ar
     8     2     3   ar
     9     3     4   ar
    10     4     5   ar
    11     5     6   ar
    12     6     7   ar
    13     7     8   ar
    14     8     9   ar
    15     9    11    1
    16    11    13    1
    17    13    14   ar
    18    14    15   ar
    19    15    16   ar
    20    16    20    1
    21    20    21    1
    22    21    22    1
    23    22    23   ar
    24    23    24   ar
    25    24    25   ar
    26    25    26   ar
    27    26    27   ar
    28    16    17   ar
    29    17    18    1
    30    17    19   ar
    31     9    10   ar
    32    33    34    1
    33    34    35    1
    34    35    30    1
    35    10     1   ar
    36    10     5   ar
    37    19    13   ar
    38    27    22   ar
    39    11    12    1
@<TRIPOS>MOLECULE
*****
 35 39 0 0 0
SMALL
GASTEIGER

@<TRIPOS>ATOM
      1 C         143.4051  143.3467  159.0410 C.ar    1  UNL1        0.1424
      2 C         144.3294  142.2941  158.5048 C.ar    1  UNL1        0.0371
      3 C         144.3707  142.0118  157.0322 C.ar    1  UNL1        0.0047
      4 C         143.4877  142.7821  156.0958 C.ar    1  UNL1        0.0195
      5 C         142.5633  143.8347  156.6320 C.ar    1  UNL1        0.0887
      6 N         141.6803  144.6050  155.6956 N.ar    1  UNL1       -0.2238
      7 C         140.7560  145.6576  156.2318 C.ar    1  UNL1        0.2000
      8 N         140.7147  145.9400  157.7044 N.ar    1  UNL1       -0.2088
      9 C         141.5977  145.1697  158.6408 C.ar    1  UNL1        0.1383
     10 C         142.5221  144.1170  158.1046 C.ar    1  UNL1        0.0833
     11 N         141.5564  145.4521  160.1134 N.pl3   1  UNL1       -0.2977
     12 H         142.1951  146.0871  160.5110 H       1  UNL1        0.1536
     13 C         140.5420  144.7668  160.9804 C.ar    1  UNL1        0.0504
     14 C         139.7300  143.6317  160.4307 C.ar    1  UNL1        0.0178
     15 C         138.7157  142.9465  161.2975 C.ar    1  UNL1        0.0391
     16 C         138.5133  143.3964  162.7141 C.ar    1  UNL1        0.1496
     17 C         139.3252  144.5316  163.2637 C.ar    1  UNL1        0.0928
     18 CL        139.1228  144.9815  164.6803 Cl      1  UNL1       -0.0790
     19 C         140.3396  145.2168  162.3969 C.ar    1  UNL1        0.0291
     20 O         137.4989  142.7112  163.5810 O.3     1  UNL1       -0.4681
     21 C         137.9295  141.6317  164.5293 C.3     1  UNL1        0.2508
     22 C         138.3666  140.2983  163.9993 C.ar    1  UNL1        0.1026
     23 C         139.3734  139.4838  164.7562 C.ar    1  UNL1        0.0185
     24 C         139.8105  138.1504  164.2262 C.ar    1  UNL1        0.0029
     25 C         139.2408  137.6314  162.9393 C.ar    1  UNL1        0.0207
     26 C         138.2339  138.4459  162.1825 C.ar    1  UNL1        0.0986
     27 N         137.7968  139.7794  162.7125 N.ar    1  UNL1       -0.2445
     28 O         143.3638  143.6291  160.5137 O.3     1  UNL1       -0.4789
     29 C         144.4379  139.2248  164.4440 C.3     1  UNL1        0.0896
     30 N         144.1694  140.3259  163.4614 N.3     1  UNL1       -0.2713
     31 C         142.8117  140.4603  162.8382 C.3     1  UNL1        0.0758
     32 C         142.5432  141.5614  161.8556 C.3     1  UNL1        0.0609
     33 C         143.6323  142.5280  161.4962 C.3     1  UNL1        0.1687
     34 C         144.9902  142.3936  162.1195 C.3     1  UNL1        0.0609
     35 C         145.2587  141.2925  163.1021 C.3     1  UNL1        0.0758
@<TRIPOS>BOND
     1    29    30    1
     2    30    31    1
     3    31    32    1
     4    32    33    1
     5    33    28    1
     6    28     1    1
     7     1     2   ar
     8     2     3   ar
     9     3     4   ar
    10     4     5   ar
    11     5     6   ar
    12     6     7   ar
    13     7     8   ar
    14     8     9   ar
    15     9    11    1
    16    11    13    1
    17    13    14   ar
    18    14    15   ar
    19    15    16   ar
    20    16    20    1
    21    20    21    1
    22    21    22    1
    23    22    23   ar
    24    23    24   ar
    25    24    25   ar
    26    25    26   ar
    27    26    27   ar
    28    16    17   ar
    29    17    18    1
    30    17    19   ar
    31     9    10   ar
    32    33    34    1
    33    34    35    1
    34    35    30    1
    35    10     1   ar
    36    10     5   ar
    37    19    13   ar
    38    27    22   ar
    39    11    12    1
@<TRIPOS>MOLECULE
*****
 35 39 0 0 0
SMALL
GASTEIGER

@<TRIPOS>ATOM
      1 C         140.6909  141.4386  161.6824 C.ar    1  UNL1        0.1424
      2 C         139.5269  142.0183  160.9348 C.ar    1  UNL1        0.0371
      3 C         139.5495  143.4568  160.5104 C.ar    1  UNL1        0.0047
      4 C         140.7361  144.3156  160.8335 C.ar    1  UNL1        0.0195
      5 C         141.9002  143.7358  161.5810 C.ar    1  UNL1        0.0887
      6 N         143.0868  144.5946  161.9041 N.ar    1  UNL1       -0.2238
      7 C         144.2509  144.0149  162.6516 C.ar    1  UNL1        0.2000
      8 N         144.2283  142.5764  163.0761 N.ar    1  UNL1       -0.2088
      9 C         143.0417  141.7176  162.7531 C.ar    1  UNL1        0.1383
     10 C         141.8776  142.2974  162.0055 C.ar    1  UNL1        0.0833
     11 N         143.0191  140.2791  163.1775 N.pl3   1  UNL1       -0.2977
     12 H         143.0265  139.5656  162.4993 H       1  UNL1        0.1536
     13 C         142.9851  139.9278  164.6355 C.ar    1  UNL1        0.0504
     14 C         142.2057  140.7785  165.5940 C.ar    1  UNL1        0.0178
     15 C         142.1718  140.4272  167.0518 C.ar    1  UNL1        0.0391
     16 C         142.9172  139.2252  167.5512 C.ar    1  UNL1        0.1496
     17 C         143.6966  138.3744  166.5927 C.ar    1  UNL1        0.0928
     18 CL        144.4420  137.1723  167.0921 Cl      1  UNL1       -0.0790
     19 C         143.7305  138.7257  165.1348 C.ar    1  UNL1        0.0291
     20 O         142.8832  138.8738  169.0091 O.3     1  UNL1       -0.4681
     21 C         143.0242  139.9508  170.0436 C.3     1  UNL1        0.2508
     22 C         142.0324  141.0749  170.0959 C.ar    1  UNL1        0.1026
     23 C         142.5042  142.4961  170.0076 C.ar    1  UNL1        0.0185
     24 C         141.5124  143.6201  170.0600 C.ar    1  UNL1        0.0029
     25 C         140.0488  143.3231  170.2006 C.ar    1  UNL1        0.0207
     26 C         139.5770  141.9020  170.2889 C.ar    1  UNL1        0.0986
     27 N         140.5689  140.7778  170.2366 N.ar    1  UNL1       -0.2445
     28 O         140.6684  140.0000  162.1069 O.3     1  UNL1       -0.4789
     29 C         137.5274  138.3489  166.9450 C.3     1  UNL1        0.0896
     30 N         138.3126  138.7617  165.7355 N.3     1  UNL1       -0.2713
     31 C         138.2729  140.1856  165.2655 C.3     1  UNL1        0.0758
     32 C         139.0581  140.5984  164.0560 C.3     1  UNL1        0.0609
     33 C         139.8831  139.5873  163.3164 C.3     1  UNL1        0.1687
     34 C         139.9229  138.1633  163.7864 C.3     1  UNL1        0.0609
     35 C         139.1377  137.7505  164.9959 C.3     1  UNL1        0.0758
@<TRIPOS>BOND
     1    29    30    1
     2    30    31    1
     3    31    32    1
     4    32    33    1
     5    33    28    1
     6    28     1    1
     7     1     2   ar
     8     2     3   ar
     9     3     4   ar
    10     4     5   ar
    11     5     6   ar
    12     6     7   ar
    13     7     8   ar
    14     8     9   ar
    15     9    11    1
    16    11    13    1
    17    13    14   ar
    18    14    15   ar
    19    15    16   ar
    20    16    20    1
    21    20    21    1
    22    21    22    1
    23    22    23   ar
    24    23    24   ar
    25    24    25   ar
    26    25    26   ar
    27    26    27   ar
    28    16    17   ar
    29    17    18    1
    30    17    19   ar
    31     9    10   ar
    32    33    34    1
    33    34    35    1
    34    35    30    1
    35    10     1   ar
    36    10     5   ar
    37    19    13   ar
    38    27    22   ar
    39    11    12    1
@<TRIPOS>MOLECULE
*****
 35 39 0 0 0
SMALL
GASTEIGER

@<TRIPOS>ATOM
      1 C         141.0901  141.5675  161.3731 C.ar    1  UNL1        0.1424
      2 C         142.2715  141.9271  160.5216 C.ar    1  UNL1        0.0371
      3 C         142.4767  143.3473  160.0850 C.ar    1  UNL1        0.0047
      4 C         141.5006  144.4081  160.5000 C.ar    1  UNL1        0.0195
      5 C         140.3193  144.0485  161.3515 C.ar    1  UNL1        0.0887
      6 N         139.3432  145.1092  161.7664 N.ar    1  UNL1       -0.2238
      7 C         138.1619  144.7497  162.6179 C.ar    1  UNL1        0.2000
      8 N         137.9566  143.3293  163.0545 N.ar    1  UNL1       -0.2088
      9 C         138.9327  142.2686  162.6396 C.ar    1  UNL1        0.1383
     10 C         140.1140  142.6282  161.7881 C.ar    1  UNL1        0.0833
     11 N         138.7274  140.8484  163.0762 N.pl3   1  UNL1       -0.2977
     12 H         138.5435  140.1495  162.4076 H       1  UNL1        0.1536
     13 C         138.8023  140.4928  164.5316 C.ar    1  UNL1        0.0504
     14 C         139.6194  141.3329  165.4678 C.ar    1  UNL1        0.0178
     15 C         139.6944  140.9774  166.9231 C.ar    1  UNL1        0.0391
     16 C         138.9522  139.7818  167.4422 C.ar    1  UNL1        0.1496
     17 C         138.1350  138.9416  166.5060 C.ar    1  UNL1        0.0928
     18 CL        137.3928  137.7459  167.0252 Cl      1  UNL1       -0.0790
     19 C         138.0601  139.2971  165.0507 C.ar    1  UNL1        0.0291
     20 O         139.0271  139.4262  168.8976 O.3     1  UNL1       -0.4681
     21 C         139.1925  140.5057  169.9258 C.3     1  UNL1        0.2508
     22 C         140.4820  141.2668  170.0135 C.ar    1  UNL1        0.1026
     23 C         140.4670  142.7663  170.0500 C.ar    1  UNL1        0.0185
     24 C         141.7566  143.5273  170.1377 C.ar    1  UNL1        0.0029
     25 C         143.0613  142.7889  170.1888 C.ar    1  UNL1        0.0207
     26 C         143.0763  141.2894  170.1523 C.ar    1  UNL1        0.0986
     27 N         141.7866  140.5283  170.0646 N.ar    1  UNL1       -0.2445
     28 O         140.8848  140.1472  161.8098 O.3     1  UNL1       -0.4789
     29 C         143.8801  138.0018  166.5454 C.3     1  UNL1        0.0896
     30 N         143.1313  138.5381  165.3615 N.3     1  UNL1       -0.2713
     31 C         142.1127  137.6828  164.6679 C.3     1  UNL1        0.0758
     32 C         141.3639  138.2192  163.4840 C.3     1  UNL1        0.0609
     33 C         141.6336  139.6108  162.9937 C.3     1  UNL1        0.1687
     34 C         142.6522  140.4662  163.6872 C.3     1  UNL1        0.0609
     35 C         143.4010  139.9299  164.8711 C.3     1  UNL1        0.0758
@<TRIPOS>BOND
     1    29    30    1
     2    30    31    1
     3    31    32    1
     4    32    33    1
     5    33    28    1
     6    28     1    1
     7     1     2   ar
     8     2     3   ar
     9     3     4   ar
    10     4     5   ar
    11     5     6   ar
    12     6     7   ar
    13     7     8   ar
    14     8     9   ar
    15     9    11    1
    16    11    13    1
    17    13    14   ar
    18    14    15   ar
    19    15    16   ar
    20    16    20    1
    21    20    21    1
    22    21    22    1
    23    22    23   ar
    24    23    24   ar
    25    24    25   ar
    26    25    26   ar
    27    26    27   ar
    28    16    17   ar
    29    17    18    1
    30    17    19   ar
    31     9    10   ar
    32    33    34    1
    33    34    35    1
    34    35    30    1
    35    10     1   ar
    36    10     5   ar
    37    19    13   ar
    38    27    22   ar
    39    11    12    1
@<TRIPOS>MOLECULE
*****
 35 39 0 0 0
SMALL
GASTEIGER

@<TRIPOS>ATOM
      1 C         138.7471  142.8167  158.9803 C.ar    1  UNL1        0.1424
      2 C         138.1348  141.6039  158.3445 C.ar    1  UNL1        0.0371
      3 C         138.4417  141.2712  156.9144 C.ar    1  UNL1        0.0047
      4 C         139.3609  142.1511  156.1202 C.ar    1  UNL1        0.0195
      5 C         139.9732  143.3638  156.7560 C.ar    1  UNL1        0.0887
      6 N         140.8924  144.2438  155.9618 N.ar    1  UNL1       -0.2238
      7 C         141.5047  145.4565  156.5976 C.ar    1  UNL1        0.2000
      8 N         141.1979  145.7893  158.0278 N.ar    1  UNL1       -0.2088
      9 C         140.2787  144.9094  158.8220 C.ar    1  UNL1        0.1383
     10 C         139.6663  143.6966  158.1861 C.ar    1  UNL1        0.0833
     11 N         139.9718  145.2422  160.2520 N.pl3   1  UNL1       -0.2977
     12 H         139.1006  145.6340  160.4902 H       1  UNL1        0.1536
     13 C         140.9923  144.9779  161.3192 C.ar    1  UNL1        0.0504
     14 C         140.7791  145.5041  162.7076 C.ar    1  UNL1        0.0178
     15 C         141.7995  145.2399  163.7748 C.ar    1  UNL1        0.0391
     16 C         143.0331  144.4494  163.4535 C.ar    1  UNL1        0.1496
     17 C         143.2464  143.9232  162.0652 C.ar    1  UNL1        0.0928
     18 CL        144.4801  143.1327  161.7440 Cl      1  UNL1       -0.0790
     19 C         142.2260  144.1874  160.9980 C.ar    1  UNL1        0.0291
     20 O         144.0536  144.1852  164.5207 O.3     1  UNL1       -0.4681
     21 C         144.0761  142.8613  165.2256 C.3     1  UNL1        0.2508
     22 C         143.0531  142.5550  166.2789 C.ar    1  UNL1        0.1026
     23 C         141.6531  142.1914  165.8816 C.ar    1  UNL1        0.0185
     24 C         140.6301  141.8851  166.9350 C.ar    1  UNL1        0.0029
     25 C         141.0071  141.9423  168.3857 C.ar    1  UNL1        0.0207
     26 C         142.4071  142.3058  168.7831 C.ar    1  UNL1        0.0986
     27 N         143.4301  142.6122  167.7296 N.ar    1  UNL1       -0.2445
     28 O         138.4403  143.1495  160.4104 O.3     1  UNL1       -0.4789
     29 C         139.3849  139.0713  164.7088 C.3     1  UNL1        0.0896
     30 N         139.1487  140.0909  163.6342 N.3     1  UNL1       -0.2713
     31 C         137.8624  140.8617  163.6013 C.3     1  UNL1        0.0758
     32 C         137.6262  141.8812  162.5267 C.3     1  UNL1        0.0609
     33 C         138.6764  142.1300  161.4850 C.3     1  UNL1        0.1687
     34 C         139.9629  141.3591  161.5179 C.3     1  UNL1        0.0609
     35 C         140.1990  140.3396  162.5925 C.3     1  UNL1        0.0758
@<TRIPOS>BOND
     1    29    30    1
     2    30    31    1
     3    31    32    1
     4    32    33    1
     5    33    28    1
     6    28     1    1
     7     1     2   ar
     8     2     3   ar
     9     3     4   ar
    10     4     5   ar
    11     5     6   ar
    12     6     7   ar
    13     7     8   ar
    14     8     9   ar
    15     9    11    1
    16    11    13    1
    17    13    14   ar
    18    14    15   ar
    19    15    16   ar
    20    16    20    1
    21    20    21    1
    22    21    22    1
    23    22    23   ar
    24    23    24   ar
    25    24    25   ar
    26    25    26   ar
    27    26    27   ar
    28    16    17   ar
    29    17    18    1
    30    17    19   ar
    31     9    10   ar
    32    33    34    1
    33    34    35    1
    34    35    30    1
    35    10     1   ar
    36    10     5   ar
    37    19    13   ar
    38    27    22   ar
    39    11    12    1
@<TRIPOS>MOLECULE
*****
 35 39 0 0 0
SMALL
GASTEIGER

@<TRIPOS>ATOM
      1 C         141.2214  143.2507  159.5717 C.ar    1  UNL1        0.1424
      2 C         142.6621  143.3693  159.1713 C.ar    1  UNL1        0.0371
      3 C         143.1353  142.7610  157.8845 C.ar    1  UNL1        0.0047
      4 C         142.1679  142.0341  156.9981 C.ar    1  UNL1        0.0195
      5 C         140.7273  141.9156  157.3984 C.ar    1  UNL1        0.0887
      6 N         139.7599  141.1887  156.5120 N.ar    1  UNL1       -0.2238
      7 C         138.3192  141.0701  156.9123 C.ar    1  UNL1        0.2000
      8 N         137.8458  141.6784  158.1992 N.ar    1  UNL1       -0.2088
      9 C         138.8132  142.4053  159.0857 C.ar    1  UNL1        0.1383
     10 C         140.2540  142.5238  158.6852 C.ar    1  UNL1        0.0833
     11 N         138.3400  143.0136  160.3725 N.pl3   1  UNL1       -0.2977
     12 H         138.0997  143.9677  160.4069 H       1  UNL1        0.1536
     13 C         138.2328  142.1682  161.6070 C.ar    1  UNL1        0.0504
     14 C         137.9252  142.8068  162.9289 C.ar    1  UNL1        0.0178
     15 C         137.8180  141.9614  164.1633 C.ar    1  UNL1        0.0391
     16 C         138.0184  140.4775  164.0758 C.ar    1  UNL1        0.1496
     17 C         138.3259  139.8389  162.7539 C.ar    1  UNL1        0.0928
     18 CL        138.5263  138.3548  162.6664 Cl      1  UNL1       -0.0790
     19 C         138.4331  140.6842  161.5194 C.ar    1  UNL1        0.0291
     20 O         137.9112  139.6321  165.3103 O.3     1  UNL1       -0.4681
     21 C         139.1339  139.3425  166.1295 C.3     1  UNL1        0.2508
     22 C         139.4965  140.2368  167.2777 C.ar    1  UNL1        0.1026
     23 C         140.1978  141.5380  167.0226 C.ar    1  UNL1        0.0185
     24 C         140.5604  142.4324  168.1708 C.ar    1  UNL1        0.0029
     25 C         140.2217  142.0256  169.5744 C.ar    1  UNL1        0.0207
     26 C         139.5205  140.7244  169.8296 C.ar    1  UNL1        0.0986
     27 N         139.1579  139.8300  168.6812 N.ar    1  UNL1       -0.2445
     28 O         140.7480  143.8590  160.8586 O.3     1  UNL1       -0.4789
     29 C         143.7863  142.8752  165.9380 C.3     1  UNL1        0.0896
     30 N         143.0268  143.1211  164.6682 N.3     1  UNL1       -0.2713
     31 C         142.9316  144.5093  164.1081 C.3     1  UNL1        0.0758
     32 C         142.1720  144.7553  162.8382 C.3     1  UNL1        0.0609
     33 C         141.5076  143.6130  162.1284 C.3     1  UNL1        0.1687
     34 C         141.6028  142.2247  162.6885 C.3     1  UNL1        0.0609
     35 C         142.3624  141.9788  163.9584 C.3     1  UNL1        0.0758
@<TRIPOS>BOND
     1    29    30    1
     2    30    31    1
     3    31    32    1
     4    32    33    1
     5    33    28    1
     6    28     1    1
     7     1     2   ar
     8     2     3   ar
     9     3     4   ar
    10     4     5   ar
    11     5     6   ar
    12     6     7   ar
    13     7     8   ar
    14     8     9   ar
    15     9    11    1
    16    11    13    1
    17    13    14   ar
    18    14    15   ar
    19    15    16   ar
    20    16    20    1
    21    20    21    1
    22    21    22    1
    23    22    23   ar
    24    23    24   ar
    25    24    25   ar
    26    25    26   ar
    27    26    27   ar
    28    16    17   ar
    29    17    18    1
    30    17    19   ar
    31     9    10   ar
    32    33    34    1
    33    34    35    1
    34    35    30    1
    35    10     1   ar
    36    10     5   ar
    37    19    13   ar
    38    27    22   ar
    39    11    12    1
@<TRIPOS>MOLECULE
*****
 35 39 0 0 0
SMALL
GASTEIGER

@<TRIPOS>ATOM
      1 C         140.0137  140.3908  165.3214 C.ar    1  UNL1        0.1424
      2 C         138.9931  139.8483  166.2774 C.ar    1  UNL1        0.0371
      3 C         138.4210  138.4780  166.0657 C.ar    1  UNL1        0.0047
      4 C         138.8694  137.6502  164.8980 C.ar    1  UNL1        0.0195
      5 C         139.8900  138.1927  163.9419 C.ar    1  UNL1        0.0887
      6 N         140.3384  137.3649  162.7742 N.ar    1  UNL1       -0.2238
      7 C         141.3590  137.9074  161.8181 C.ar    1  UNL1        0.2000
      8 N         141.9312  139.2778  162.0298 N.ar    1  UNL1       -0.2088
      9 C         141.4827  140.1056  163.1975 C.ar    1  UNL1        0.1383
     10 C         140.4621  139.5630  164.1536 C.ar    1  UNL1        0.0833
     11 N         142.0549  141.4759  163.4092 N.pl3   1  UNL1       -0.2977
     12 H         142.5815  141.6699  164.2181 H       1  UNL1        0.1536
     13 C         141.8247  142.5507  162.3885 C.ar    1  UNL1        0.0504
     14 C         142.5150  142.4821  161.0585 C.ar    1  UNL1        0.0178
     15 C         142.2848  143.5568  160.0377 C.ar    1  UNL1        0.0391
     16 C         141.3645  144.7001  160.3470 C.ar    1  UNL1        0.1496
     17 C         140.6742  144.7687  161.6770 C.ar    1  UNL1        0.0928
     18 CL        139.7538  145.9122  161.9862 Cl      1  UNL1       -0.0790
     19 C         140.9043  143.6940  162.6977 C.ar    1  UNL1        0.0291
     20 O         141.1343  145.7749  159.3262 O.3     1  UNL1       -0.4681
     21 C         141.3601  145.4882  157.8713 C.3     1  UNL1        0.2508
     22 C         140.1928  145.4077  156.9328 C.ar    1  UNL1        0.1026
     23 C         139.7497  146.6275  156.1805 C.ar    1  UNL1        0.0185
     24 C         138.5824  146.5469  155.2420 C.ar    1  UNL1        0.0029
     25 C         137.8581  145.2466  155.0557 C.ar    1  UNL1        0.0207
     26 C         138.3012  144.0269  155.8079 C.ar    1  UNL1        0.0986
     27 N         139.4686  144.1074  156.7465 N.ar    1  UNL1       -0.2445
     28 O         140.5859  141.7612  165.5331 O.3     1  UNL1       -0.4789
     29 C         142.9762  143.2275  170.8374 C.3     1  UNL1        0.0896
     30 N         142.3786  142.8609  169.5113 N.3     1  UNL1       -0.2713
     31 C         140.9287  143.1340  169.2408 C.3     1  UNL1        0.0758
     32 C         140.3312  142.7675  167.9147 C.3     1  UNL1        0.0609
     33 C         141.1835  142.1278  166.8592 C.3     1  UNL1        0.1687
     34 C         142.6334  141.8546  167.1296 C.3     1  UNL1        0.0609
     35 C         143.2310  142.2212  168.4557 C.3     1  UNL1        0.0758
@<TRIPOS>BOND
     1    29    30    1
     2    30    31    1
     3    31    32    1
     4    32    33    1
     5    33    28    1
     6    28     1    1
     7     1     2   ar
     8     2     3   ar
     9     3     4   ar
    10     4     5   ar
    11     5     6   ar
    12     6     7   ar
    13     7     8   ar
    14     8     9   ar
    15     9    11    1
    16    11    13    1
    17    13    14   ar
    18    14    15   ar
    19    15    16   ar
    20    16    20    1
    21    20    21    1
    22    21    22    1
    23    22    23   ar
    24    23    24   ar
    25    24    25   ar
    26    25    26   ar
    27    26    27   ar
    28    16    17   ar
    29    17    18    1
    30    17    19   ar
    31     9    10   ar
    32    33    34    1
    33    34    35    1
    34    35    30    1
    35    10     1   ar
    36    10     5   ar
    37    19    13   ar
    38    27    22   ar
    39    11    12    1
