@<TRIPOS>MOLECULE
*****
 26 29 0 0 0
SMALL
GASTEIGER

@<TRIPOS>ATOM
      1 C         141.6741  141.6097  169.0418 C.2     1  UNL1        0.1571
      2 N         141.3981  141.6487  170.5157 N.2     1  UNL1       -0.1436
      3 N         140.1200  140.9051  170.7677 N.2     1  UNL1       -0.1519
      4 C         139.6061  140.4065  169.4496 C.2     1  UNL1        0.0865
      5 C         138.3877  139.6122  169.0829 C.3     1  UNL1        0.0736
      6 C         138.1299  139.2534  167.6494 C.2     1  UNL1       -0.0197
      7 C         139.0904  139.6889  166.5828 C.2     1  UNL1       -0.0023
      8 C         140.3088  140.4831  166.9495 C.2     1  UNL1        0.0027
      9 C         140.5667  140.8420  168.3829 C.2     1  UNL1        0.0395
     10 C         138.8324  139.3300  165.1493 C.ar    1  UNL1        0.0189
     11 C         139.2135  137.9733  164.6356 C.ar    1  UNL1        0.0031
     12 C         138.9556  137.6144  163.2021 C.ar    1  UNL1        0.0207
     13 C         138.3166  138.6124  162.2824 C.ar    1  UNL1        0.0989
     14 N         137.9355  139.9692  162.7963 N.ar    1  UNL1       -0.2423
     15 C         138.1935  140.3280  164.2297 C.ar    1  UNL1        0.0988
     16 O         144.0232  142.7144  169.1490 O.2     1  UNL1       -0.2684
     17 C         142.8510  142.2296  168.3485 C.2     1  UNL1        0.2654
     18 N         142.8557  142.3647  166.8546 N.am    1  UNL1       -0.2996
     19 H         142.0864  142.0465  166.3291 H       1  UNL1        0.1498
     20 C         144.0326  142.9846  166.1613 C.3     1  UNL1        0.0899
     21 C         144.0997  142.9959  164.6628 C.3     1  UNL1        0.0246
     22 C         143.2186  143.9234  163.8797 C.3     1  UNL1        0.0338
     23 C         143.2857  143.9348  162.3811 C.3     1  UNL1        0.1422
     24 O         144.2338  143.0186  161.6659 O.3     1  UNL1       -0.3538
     25 C         145.1150  142.0911  162.4491 C.3     1  UNL1        0.1422
     26 C         145.0479  142.0798  163.9476 C.3     1  UNL1        0.0338
@<TRIPOS>BOND
     1    16    17    2
     2    17    18   am
     3    18    20    1
     4    20    21    1
     5    21    22    1
     6    22    23    1
     7    23    24    1
     8    24    25    1
     9    25    26    1
    10    17     1    1
    11     1     2    2
    12     2     3    1
    13     3     4    2
    14     4     5    1
    15     5     6    1
    16     6     7    2
    17     7    10    1
    18    10    11   ar
    19    11    12   ar
    20    12    13   ar
    21    13    14   ar
    22    14    15   ar
    23     7     8    1
    24     8     9    2
    25    26    21    1
    26     9     1    1
    27     9     4    1
    28    15    10   ar
    29    18    19    1
@<TRIPOS>MOLECULE
*****
 26 29 0 0 0
SMALL
GASTEIGER

@<TRIPOS>ATOM
      1 C         140.7529  138.5408  163.8481 C.2     1  UNL1        0.1571
      2 N         139.9345  137.5119  163.1259 N.2     1  UNL1       -0.1436
      3 N         138.7365  137.1958  163.9713 N.2     1  UNL1       -0.1519
      4 C         138.8145  138.0292  165.2160 C.2     1  UNL1        0.0865
      5 C         137.9117  138.1386  166.4089 C.3     1  UNL1        0.0736
      6 C         138.2552  139.0792  167.5256 C.2     1  UNL1       -0.0197
      7 C         139.5015  139.9105  167.4495 C.2     1  UNL1       -0.0023
      8 C         140.4043  139.8011  166.2566 C.2     1  UNL1        0.0027
      9 C         140.0607  138.8605  165.1399 C.2     1  UNL1        0.0395
     10 C         139.8450  140.8511  168.5663 C.ar    1  UNL1        0.0189
     11 C         140.2718  142.2559  168.2592 C.ar    1  UNL1        0.0031
     12 C         140.6153  143.1966  169.3760 C.ar    1  UNL1        0.0207
     13 C         140.5319  142.7324  170.8000 C.ar    1  UNL1        0.0989
     14 N         140.1050  141.3275  171.1071 N.ar    1  UNL1       -0.2423
     15 C         139.7616  140.3869  169.9903 C.ar    1  UNL1        0.0988
     16 O         142.2092  139.4780  161.9114 O.2     1  UNL1       -0.2684
     17 C         142.0380  139.1441  163.3636 C.2     1  UNL1        0.2654
     18 N         143.1519  139.4134  164.3315 N.am    1  UNL1       -0.2996
     19 H         143.0396  139.1942  165.2847 H       1  UNL1        0.1498
     20 C         144.4370  140.0167  163.8471 C.3     1  UNL1        0.0899
     21 C         144.4587  141.4284  163.3406 C.3     1  UNL1        0.0246
     22 C         144.7407  141.7014  161.8929 C.3     1  UNL1        0.0338
     23 C         144.7624  143.1132  161.3863 C.3     1  UNL1        0.1422
     24 O         144.5021  144.2518  162.3274 O.3     1  UNL1       -0.3538
     25 C         144.2201  143.9787  163.7752 C.3     1  UNL1        0.1422
     26 C         144.1984  142.5670  164.2818 C.3     1  UNL1        0.0338
@<TRIPOS>BOND
     1    16    17    2
     2    17    18   am
     3    18    20    1
     4    20    21    1
     5    21    22    1
     6    22    23    1
     7    23    24    1
     8    24    25    1
     9    25    26    1
    10    17     1    1
    11     1     2    2
    12     2     3    1
    13     3     4    2
    14     4     5    1
    15     5     6    1
    16     6     7    2
    17     7    10    1
    18    10    11   ar
    19    11    12   ar
    20    12    13   ar
    21    13    14   ar
    22    14    15   ar
    23     7     8    1
    24     8     9    2
    25    26    21    1
    26     9     1    1
    27     9     4    1
    28    15    10   ar
    29    18    19    1
@<TRIPOS>MOLECULE
*****
 26 29 0 0 0
SMALL
GASTEIGER

@<TRIPOS>ATOM
      1 C         139.5409  139.8252  167.6756 C.2     1  UNL1        0.1571
      2 N         139.2254  139.8476  169.1419 N.2     1  UNL1       -0.1436
      3 N         140.2560  140.6968  169.8248 N.2     1  UNL1       -0.1519
      4 C         141.2085  141.1993  168.7807 C.2     1  UNL1        0.0865
      5 C         142.4212  142.0778  168.8678 C.3     1  UNL1        0.0736
      6 C         143.1919  142.4176  167.6266 C.2     1  UNL1       -0.0197
      7 C         142.7499  141.8789  166.2983 C.2     1  UNL1       -0.0023
      8 C         141.5372  141.0004  166.2112 C.2     1  UNL1        0.0027
      9 C         140.7665  140.6606  167.4523 C.2     1  UNL1        0.0395
     10 C         143.5206  142.2187  165.0571 C.ar    1  UNL1        0.0189
     11 C         144.5606  141.2711  164.5370 C.ar    1  UNL1        0.0031
     12 C         145.3313  141.6109  163.2958 C.ar    1  UNL1        0.0207
     13 C         145.0620  142.8984  162.5747 C.ar    1  UNL1        0.0989
     14 N         144.0220  143.8460  163.0948 N.ar    1  UNL1       -0.2423
     15 C         143.2513  143.5061  164.3360 C.ar    1  UNL1        0.0988
     16 O         137.3473  138.6851  166.8766 O.2     1  UNL1       -0.2684
     17 C         138.7667  139.0955  166.6182 C.2     1  UNL1        0.2654
     18 N         139.4119  138.7762  165.3021 N.am    1  UNL1       -0.2996
     19 H         140.3435  139.0455  165.1325 H       1  UNL1        0.1498
     20 C         138.6377  138.0465  164.2447 C.3     1  UNL1        0.0899
     21 C         138.6707  138.5280  162.8245 C.3     1  UNL1        0.0246
     22 C         139.6139  137.9002  161.8415 C.3     1  UNL1        0.0338
     23 C         139.6469  138.3817  160.4212 C.3     1  UNL1        0.1422
     24 O         138.7367  139.4910  159.9840 O.3     1  UNL1       -0.3538
     25 C         137.7936  140.1187  160.9671 C.3     1  UNL1        0.1422
     26 C         137.7605  139.6372  162.3873 C.3     1  UNL1        0.0338
@<TRIPOS>BOND
     1    16    17    2
     2    17    18   am
     3    18    20    1
     4    20    21    1
     5    21    22    1
     6    22    23    1
     7    23    24    1
     8    24    25    1
     9    25    26    1
    10    17     1    1
    11     1     2    2
    12     2     3    1
    13     3     4    2
    14     4     5    1
    15     5     6    1
    16     6     7    2
    17     7    10    1
    18    10    11   ar
    19    11    12   ar
    20    12    13   ar
    21    13    14   ar
    22    14    15   ar
    23     7     8    1
    24     8     9    2
    25    26    21    1
    26     9     1    1
    27     9     4    1
    28    15    10   ar
    29    18    19    1
@<TRIPOS>MOLECULE
*****
 26 29 0 0 0
SMALL
GASTEIGER

@<TRIPOS>ATOM
      1 C         140.1106  139.2775  162.9860 C.2     1  UNL1        0.1571
      2 N         139.4893  138.0947  162.3042 N.2     1  UNL1       -0.1436
      3 N         138.6649  137.3563  163.3167 N.2     1  UNL1       -0.1519
      4 C         138.7766  138.0828  164.6242 C.2     1  UNL1        0.0865
      5 C         138.1802  137.8166  165.9745 C.3     1  UNL1        0.0736
      6 C         138.4773  138.7377  167.1204 C.2     1  UNL1       -0.0197
      7 C         139.3708  139.9251  166.9161 C.2     1  UNL1       -0.0023
      8 C         139.9672  140.1914  165.5658 C.2     1  UNL1        0.0027
      9 C         139.6701  139.2702  164.4198 C.2     1  UNL1        0.0395
     10 C         139.6679  140.8463  168.0621 C.ar    1  UNL1        0.0189
     11 C         140.3367  142.1651  167.8104 C.ar    1  UNL1        0.0031
     12 C         140.6337  143.0862  168.9564 C.ar    1  UNL1        0.0207
     13 C         140.2619  142.6885  170.3541 C.ar    1  UNL1        0.0989
     14 N         139.5931  141.3697  170.6058 N.ar    1  UNL1       -0.2423
     15 C         139.2961  140.4486  169.4598 C.ar    1  UNL1        0.0988
     16 O         142.4970  140.0679  162.3302 O.2     1  UNL1       -0.2684
     17 C         141.0137  140.2900  162.3463 C.2     1  UNL1        0.2654
     18 N         140.4335  141.5247  161.7225 N.am    1  UNL1       -0.2996
     19 H         139.4599  141.6705  161.7330 H       1  UNL1        0.1498
     20 C         141.3367  142.5372  161.0828 C.3     1  UNL1        0.0899
     21 C         142.1249  143.4850  161.9373 C.3     1  UNL1        0.0246
     22 C         143.6231  143.4918  161.8642 C.3     1  UNL1        0.0338
     23 C         144.4115  144.4396  162.7188 C.3     1  UNL1        0.1422
     24 O         143.7016  145.3806  163.6464 O.3     1  UNL1       -0.3538
     25 C         142.2034  145.3737  163.7195 C.3     1  UNL1        0.1422
     26 C         141.4150  144.4260  162.8650 C.3     1  UNL1        0.0338
@<TRIPOS>BOND
     1    16    17    2
     2    17    18   am
     3    18    20    1
     4    20    21    1
     5    21    22    1
     6    22    23    1
     7    23    24    1
     8    24    25    1
     9    25    26    1
    10    17     1    1
    11     1     2    2
    12     2     3    1
    13     3     4    2
    14     4     5    1
    15     5     6    1
    16     6     7    2
    17     7    10    1
    18    10    11   ar
    19    11    12   ar
    20    12    13   ar
    21    13    14   ar
    22    14    15   ar
    23     7     8    1
    24     8     9    2
    25    26    21    1
    26     9     1    1
    27     9     4    1
    28    15    10   ar
    29    18    19    1
@<TRIPOS>MOLECULE
*****
 26 29 0 0 0
SMALL
GASTEIGER

@<TRIPOS>ATOM
      1 C         144.0752  141.1456  164.0915 C.2     1  UNL1        0.1571
      2 N         144.8176  139.9984  163.4729 N.2     1  UNL1       -0.1436
      3 N         144.6912  138.8169  164.3885 N.2     1  UNL1       -0.1519
      4 C         143.8706  139.2340  165.5728 C.2     1  UNL1        0.0865
      5 C         143.4209  138.4892  166.7947 C.3     1  UNL1        0.0736
      6 C         142.5905  139.1836  167.8330 C.2     1  UNL1       -0.0197
      7 C         142.2098  140.6228  167.6495 C.2     1  UNL1       -0.0023
      8 C         142.6595  141.3676  166.4276 C.2     1  UNL1        0.0027
      9 C         143.4899  140.6732  165.3893 C.2     1  UNL1        0.0395
     10 C         141.3793  141.3173  168.6878 C.ar    1  UNL1        0.0189
     11 C         141.2940  142.8147  168.7016 C.ar    1  UNL1        0.0031
     12 C         140.4635  143.5092  169.7400 C.ar    1  UNL1        0.0207
     13 C         139.7184  142.7060  170.7646 C.ar    1  UNL1        0.0989
     14 N         139.8037  141.2085  170.7508 N.ar    1  UNL1       -0.2423
     15 C         140.6342  140.5141  169.7124 C.ar    1  UNL1        0.0988
     16 O         144.9029  142.9923  162.4622 O.2     1  UNL1       -0.2684
     17 C         143.9415  142.5234  163.5137 C.2     1  UNL1        0.2654
     18 N         142.8463  143.4324  163.9875 N.am    1  UNL1       -0.2996
     19 H         142.2153  143.1247  164.6777 H       1  UNL1        0.1498
     20 C         142.7126  144.8102  163.4097 C.3     1  UNL1        0.0899
     21 C         141.7099  145.0749  162.3261 C.3     1  UNL1        0.0246
     22 C         141.9221  144.5086  160.9534 C.3     1  UNL1        0.0338
     23 C         140.9193  144.7732  159.8696 C.3     1  UNL1        0.1422
     24 O         139.7043  145.6041  160.1585 O.3     1  UNL1       -0.3538
     25 C         139.4922  146.1704  161.5313 C.3     1  UNL1        0.1422
     26 C         140.4949  145.9058  162.6150 C.3     1  UNL1        0.0338
@<TRIPOS>BOND
     1    16    17    2
     2    17    18   am
     3    18    20    1
     4    20    21    1
     5    21    22    1
     6    22    23    1
     7    23    24    1
     8    24    25    1
     9    25    26    1
    10    17     1    1
    11     1     2    2
    12     2     3    1
    13     3     4    2
    14     4     5    1
    15     5     6    1
    16     6     7    2
    17     7    10    1
    18    10    11   ar
    19    11    12   ar
    20    12    13   ar
    21    13    14   ar
    22    14    15   ar
    23     7     8    1
    24     8     9    2
    25    26    21    1
    26     9     1    1
    27     9     4    1
    28    15    10   ar
    29    18    19    1
@<TRIPOS>MOLECULE
*****
 26 29 0 0 0
SMALL
GASTEIGER

@<TRIPOS>ATOM
      1 C         139.3702  138.6233  164.6719 C.2     1  UNL1        0.1571
      2 N         139.0247  137.3433  163.9704 N.2     1  UNL1       -0.1436
      3 N         139.7071  137.3481  162.6346 N.2     1  UNL1       -0.1519
      4 C         140.4744  138.6310  162.5106 C.2     1  UNL1        0.0865
      5 C         141.3358  139.1833  161.4138 C.3     1  UNL1        0.0736
      6 C         141.9889  140.5238  161.5762 C.2     1  UNL1       -0.0197
      7 C         141.7808  141.3120  162.8354 C.2     1  UNL1       -0.0023
      8 C         140.9194  140.7596  163.9322 C.2     1  UNL1        0.0027
      9 C         140.2662  139.4191  163.7698 C.2     1  UNL1        0.0395
     10 C         142.4340  142.6525  162.9978 C.ar    1  UNL1        0.0189
     11 C         141.7930  143.6997  163.8594 C.ar    1  UNL1        0.0031
     12 C         142.4462  145.0403  164.0217 C.ar    1  UNL1        0.0207
     13 C         143.7405  145.3335  163.3224 C.ar    1  UNL1        0.0989
     14 N         144.3814  144.2862  162.4608 N.ar    1  UNL1       -0.2423
     15 C         143.7282  142.9458  162.2984 C.ar    1  UNL1        0.0988
     16 O         137.4832  138.7806  166.4508 O.2     1  UNL1       -0.2684
     17 C         138.9020  139.0352  166.0362 C.2     1  UNL1        0.2654
     18 N         139.8528  139.7018  166.9859 N.am    1  UNL1       -0.2996
     19 H         140.7841  139.8690  166.7138 H       1  UNL1        0.1498
     20 C         139.3846  140.1137  168.3501 C.3     1  UNL1        0.0899
     21 C         140.2559  140.9776  169.2128 C.3     1  UNL1        0.0246
     22 C         141.0513  140.3647  170.3272 C.3     1  UNL1        0.0338
     23 C         141.9227  141.2286  171.1900 C.3     1  UNL1        0.1422
     24 O         141.9987  142.7054  170.9385 O.3     1  UNL1       -0.3538
     25 C         141.2033  143.3183  169.8241 C.3     1  UNL1        0.1422
     26 C         140.3320  142.4544  168.9613 C.3     1  UNL1        0.0338
@<TRIPOS>BOND
     1    16    17    2
     2    17    18   am
     3    18    20    1
     4    20    21    1
     5    21    22    1
     6    22    23    1
     7    23    24    1
     8    24    25    1
     9    25    26    1
    10    17     1    1
    11     1     2    2
    12     2     3    1
    13     3     4    2
    14     4     5    1
    15     5     6    1
    16     6     7    2
    17     7    10    1
    18    10    11   ar
    19    11    12   ar
    20    12    13   ar
    21    13    14   ar
    22    14    15   ar
    23     7     8    1
    24     8     9    2
    25    26    21    1
    26     9     1    1
    27     9     4    1
    28    15    10   ar
    29    18    19    1
@<TRIPOS>MOLECULE
*****
 26 29 0 0 0
SMALL
GASTEIGER

@<TRIPOS>ATOM
      1 C         144.3318  142.2516  163.5646 C.2     1  UNL1        0.1571
      2 N         145.8033  142.0292  163.3773 N.2     1  UNL1       -0.1436
      3 N         146.1421  140.6775  163.9324 N.2     1  UNL1       -0.1519
      4 C         144.8799  140.0645  164.4628 C.2     1  UNL1        0.0865
      5 C         144.6049  138.7462  165.1233 C.3     1  UNL1        0.0736
      6 C         143.2110  138.4008  165.5565 C.2     1  UNL1       -0.0197
      7 C         142.0921  139.3737  165.3292 C.2     1  UNL1       -0.0023
      8 C         142.3672  140.6920  164.6687 C.2     1  UNL1        0.0027
      9 C         143.7611  141.0374  164.2355 C.2     1  UNL1        0.0395
     10 C         140.6982  139.0282  165.7625 C.ar    1  UNL1        0.0189
     11 C         139.9286  137.9655  165.0357 C.ar    1  UNL1        0.0031
     12 C         138.5347  137.6200  165.4689 C.ar    1  UNL1        0.0207
     13 C         137.9104  138.3373  166.6290 C.ar    1  UNL1        0.0989
     14 N         138.6801  139.4001  167.3558 N.ar    1  UNL1       -0.2423
     15 C         140.0739  139.7455  166.9225 C.ar    1  UNL1        0.0988
     16 O         143.4889  143.8592  161.7058 O.2     1  UNL1       -0.2684
     17 C         143.5654  143.4738  163.1533 C.2     1  UNL1        0.2654
     18 N         142.8755  144.3105  164.1897 N.am    1  UNL1       -0.2996
     19 H         142.9257  144.0576  165.1398 H       1  UNL1        0.1498
     20 C         142.1092  145.5326  163.7784 C.3     1  UNL1        0.0899
     21 C         140.6909  145.4051  163.3071 C.3     1  UNL1        0.0246
     22 C         139.6957  144.6351  164.1237 C.3     1  UNL1        0.0338
     23 C         138.2773  144.5075  163.6525 C.3     1  UNL1        0.1422
     24 O         137.8541  145.1499  162.3648 O.3     1  UNL1       -0.3538
     25 C         138.8493  145.9199  161.5483 C.3     1  UNL1        0.1422
     26 C         140.2677  146.0475  162.0194 C.3     1  UNL1        0.0338
@<TRIPOS>BOND
     1    16    17    2
     2    17    18   am
     3    18    20    1
     4    20    21    1
     5    21    22    1
     6    22    23    1
     7    23    24    1
     8    24    25    1
     9    25    26    1
    10    17     1    1
    11     1     2    2
    12     2     3    1
    13     3     4    2
    14     4     5    1
    15     5     6    1
    16     6     7    2
    17     7    10    1
    18    10    11   ar
    19    11    12   ar
    20    12    13   ar
    21    13    14   ar
    22    14    15   ar
    23     7     8    1
    24     8     9    2
    25    26    21    1
    26     9     1    1
    27     9     4    1
    28    15    10   ar
    29    18    19    1
@<TRIPOS>MOLECULE
*****
 26 29 0 0 0
SMALL
GASTEIGER

@<TRIPOS>ATOM
      1 C         138.3411  142.1218  162.2895 C.2     1  UNL1        0.1571
      2 N         137.7186  143.3204  161.6369 N.2     1  UNL1       -0.1436
      3 N         137.8307  144.4759  162.5868 N.2     1  UNL1       -0.1519
      4 C         138.5226  143.9915  163.8264 C.2     1  UNL1        0.0865
      5 C         138.9062  144.6872  165.0987 C.3     1  UNL1        0.0736
      6 C         139.6051  143.9280  166.1873 C.2     1  UNL1       -0.0197
      7 C         139.9205  142.4731  166.0036 C.2     1  UNL1       -0.0023
      8 C         139.5370  141.7774  164.7312 C.2     1  UNL1        0.0027
      9 C         138.8381  142.5366  163.6427 C.2     1  UNL1        0.0395
     10 C         140.6195  141.7140  167.0922 C.ar    1  UNL1        0.0189
     11 C         139.8636  140.7095  167.9105 C.ar    1  UNL1        0.0031
     12 C         140.5626  139.9503  168.9992 C.ar    1  UNL1        0.0207
     13 C         142.0175  140.1957  169.2695 C.ar    1  UNL1        0.0989
     14 N         142.7734  141.2002  168.4511 N.ar    1  UNL1       -0.2423
     15 C         142.0744  141.9593  167.3625 C.ar    1  UNL1        0.0988
     16 O         138.0863  139.5459  162.5124 O.2     1  UNL1       -0.2684
     17 C         138.4480  140.7495  161.6936 C.2     1  UNL1        0.2654
     18 N         138.9165  140.5806  160.2786 N.am    1  UNL1       -0.2996
     19 H         139.1539  141.3705  159.7411 H       1  UNL1        0.1498
     20 C         139.0234  139.2082  159.6826 C.3     1  UNL1        0.0899
     21 C         140.3677  138.6516  159.3180 C.3     1  UNL1        0.0246
     22 C         141.4230  138.4893  160.3716 C.3     1  UNL1        0.0338
     23 C         142.7675  137.9326  160.0070 C.3     1  UNL1        0.1422
     24 O         143.0565  137.5383  158.5889 O.3     1  UNL1       -0.3538
     25 C         142.0010  137.7006  157.5354 C.3     1  UNL1        0.1422
     26 C         140.6567  138.2572  157.8999 C.3     1  UNL1        0.0338
@<TRIPOS>BOND
     1    16    17    2
     2    17    18   am
     3    18    20    1
     4    20    21    1
     5    21    22    1
     6    22    23    1
     7    23    24    1
     8    24    25    1
     9    25    26    1
    10    17     1    1
    11     1     2    2
    12     2     3    1
    13     3     4    2
    14     4     5    1
    15     5     6    1
    16     6     7    2
    17     7    10    1
    18    10    11   ar
    19    11    12   ar
    20    12    13   ar
    21    13    14   ar
    22    14    15   ar
    23     7     8    1
    24     8     9    2
    25    26    21    1
    26     9     1    1
    27     9     4    1
    28    15    10   ar
    29    18    19    1
@<TRIPOS>MOLECULE
*****
 26 29 0 0 0
SMALL
GASTEIGER

@<TRIPOS>ATOM
      1 C         140.2464  144.2103  160.9036 C.2     1  UNL1        0.1571
      2 N         139.8273  145.6505  160.8872 N.2     1  UNL1       -0.1436
      3 N         138.8493  145.8613  162.0048 N.2     1  UNL1       -0.1519
      4 C         138.6640  144.5515  162.7120 C.2     1  UNL1        0.0865
      5 C         137.8206  144.1561  163.8877 C.3     1  UNL1        0.0736
      6 C         137.8407  142.7403  164.3827 C.2     1  UNL1       -0.0197
      7 C         138.7041  141.7199  163.7021 C.2     1  UNL1       -0.0023
      8 C         139.5475  142.1153  162.5264 C.2     1  UNL1        0.0027
      9 C         139.5275  143.5311  162.0313 C.2     1  UNL1        0.0395
     10 C         138.7242  140.3041  164.1972 C.ar    1  UNL1        0.0189
     11 C         138.2676  139.9905  165.5911 C.ar    1  UNL1        0.0031
     12 C         138.2876  138.5747  166.0863 C.ar    1  UNL1        0.0207
     13 C         138.7642  137.4725  165.1874 C.ar    1  UNL1        0.0989
     14 N         139.2208  137.7861  163.7933 N.ar    1  UNL1       -0.2423
     15 C         139.2008  139.2019  163.2983 C.ar    1  UNL1        0.0988
     16 O         142.6483  144.0025  159.9354 O.2     1  UNL1       -0.2684
     17 C         141.2144  143.5630  159.9581 C.2     1  UNL1        0.2654
     18 N         140.7485  142.4760  159.0353 N.am    1  UNL1       -0.2996
     19 H         139.8074  142.1875  159.0502 H       1  UNL1        0.1498
     20 C         141.7166  141.8287  158.0899 C.3     1  UNL1        0.0899
     21 C         142.1811  140.4241  158.3375 C.3     1  UNL1        0.0246
     22 C         142.2490  139.4456  157.2025 C.3     1  UNL1        0.0338
     23 C         142.7135  138.0409  157.4501 C.3     1  UNL1        0.1422
     24 O         143.1101  137.6148  158.8325 O.3     1  UNL1       -0.3538
     25 C         143.0423  138.5933  159.9673 C.3     1  UNL1        0.1422
     26 C         142.5777  139.9979  159.7199 C.3     1  UNL1        0.0338
@<TRIPOS>BOND
     1    16    17    2
     2    17    18   am
     3    18    20    1
     4    20    21    1
     5    21    22    1
     6    22    23    1
     7    23    24    1
     8    24    25    1
     9    25    26    1
    10    17     1    1
    11     1     2    2
    12     2     3    1
    13     3     4    2
    14     4     5    1
    15     5     6    1
    16     6     7    2
    17     7    10    1
    18    10    11   ar
    19    11    12   ar
    20    12    13   ar
    21    13    14   ar
    22    14    15   ar
    23     7     8    1
    24     8     9    2
    25    26    21    1
    26     9     1    1
    27     9     4    1
    28    15    10   ar
    29    18    19    1
