@<TRIPOS>MOLECULE
*****
 38 42 0 0 0
SMALL
GASTEIGER

@<TRIPOS>ATOM
      1 C         143.3484  139.8134  160.0848 C.3     1  UNL1        0.0666
      2 S         143.9407  138.9370  161.1482 S.3     1  UNL1       -0.0756
      3 C         144.7366  140.8892  163.6392 C.3     1  UNL1        0.1340
      4 N         143.7000  139.8053  163.6648 N.ar    1  UNL1       -0.2884
      5 C         143.3342  138.9080  162.5199 C.ar    1  UNL1        0.1932
      6 N         142.2554  137.9765  162.9873 N.ar    1  UNL1       -0.1221
      7 N         141.9544  138.2981  164.4212 N.ar    1  UNL1       -0.1282
      8 C         142.8473  139.4284  164.8399 C.ar    1  UNL1        0.1683
      9 C         142.8814  140.0693  166.1957 C.ar    1  UNL1        0.0551
     10 C         143.0023  141.5594  166.3181 C.ar    1  UNL1        0.0063
     11 C         143.0364  142.2002  167.6739 C.ar    1  UNL1        0.0239
     12 C         142.9496  141.3509  168.9073 C.ar    1  UNL1        0.1342
     13 N         142.8286  139.8608  168.7849 N.ar    1  UNL1       -0.2392
     14 C         142.7945  139.2200  167.4290 C.ar    1  UNL1        0.1020
     15 C         142.9837  141.9917  170.2631 C.2     1  UNL1        0.2605
     16 N         142.4719  141.2446  171.4589 N.am    1  UNL1       -0.3241
     17 O         143.5295  143.3797  170.4231 O.2     1  UNL1       -0.2687
     18 H         142.1137  140.3337  171.3539 H       1  UNL1        0.1453
     19 H         142.4943  141.6653  172.3487 H       1  UNL1        0.1453
     20 C         142.3865  140.9017  160.4595 C.3     1  UNL1        0.0294
     21 C         142.8980  142.2694  160.8027 C.3     1  UNL1        0.0730
     22 N         142.2014  143.0905  161.8470 N.3     1  UNL1       -0.2726
     23 C         142.2765  144.5817  161.9911 C.3     1  UNL1        0.0721
     24 C         141.4289  144.9773  163.1637 C.3     1  UNL1        0.0190
     25 C         140.8299  143.7306  163.7443 C.3     1  UNL1        0.0201
     26 C         140.0745  144.4168  164.8436 C.3     1  UNL1        0.0061
     27 C         139.9994  142.9257  164.6995 C.3     1  UNL1        0.0237
     28 C         141.3073  142.5645  162.9305 C.3     1  UNL1        0.0724
     29 C         139.4765  141.6000  165.1677 C.ar    1  UNL1       -0.0225
     30 C         138.8433  140.6556  164.1894 C.ar    1  UNL1       -0.0043
     31 C         138.3204  139.3300  164.6576 C.ar    1  UNL1        0.0035
     32 C         138.4307  138.9488  166.1041 C.ar    1  UNL1        0.0714
     33 C         139.0639  139.8932  167.0824 C.ar    1  UNL1        0.0035
     34 C         139.5868  141.2188  166.6142 C.ar    1  UNL1       -0.0043
     35 C         137.9078  137.6231  166.5723 C.3     1  UNL1        0.4186
     36 F         137.3849  136.2974  167.0406 F       1  UNL1       -0.1659
     37 F         137.1593  138.3085  167.6768 F       1  UNL1       -0.1659
     38 F         138.6564  136.9378  165.4679 F       1  UNL1       -0.1659
@<TRIPOS>BOND
     1     3     4    1
     2     4     5   ar
     3     5     2    1
     4     2     1    1
     5     1    20    1
     6    20    21    1
     7    21    22    1
     8    22    23    1
     9    23    24    1
    10    25    24    1
    11    25    26    1
    12    26    27    1
    13    27    29    1
    14    29    30   ar
    15    30    31   ar
    16    31    32   ar
    17    32    35    1
    18    35    36    1
    19    35    37    1
    20    35    38    1
    21    32    33   ar
    22    33    34   ar
    23    25    28    1
    24     5     6   ar
    25     6     7   ar
    26     7     8   ar
    27     8     9    1
    28     9    10   ar
    29    10    11   ar
    30    11    12   ar
    31    12    15    1
    32    15    16   am
    33    15    17    2
    34    12    13   ar
    35    13    14   ar
    36     8     4   ar
    37    14     9   ar
    38    28    22    1
    39    27    25    1
    40    34    29   ar
    41    16    18    1
    42    16    19    1
@<TRIPOS>MOLECULE
*****
 38 42 0 0 0
SMALL
GASTEIGER

@<TRIPOS>ATOM
      1 C         143.8657  142.1299  160.0156 C.3     1  UNL1        0.0666
      2 S         144.7850  142.5379  161.1284 S.3     1  UNL1       -0.0756
      3 C         144.4670  140.1559  163.3363 C.3     1  UNL1        0.1340
      4 N         144.1065  141.5980  163.5370 N.ar    1  UNL1       -0.2884
      5 C         144.2526  142.6929  162.5222 C.ar    1  UNL1        0.1932
      6 N         143.7729  143.9700  163.1457 N.ar    1  UNL1       -0.1221
      7 N         143.3302  143.6645  164.5460 N.ar    1  UNL1       -0.1282
      8 C         143.5364  142.1985  164.7879 C.ar    1  UNL1        0.1683
      9 C         143.2268  141.4623  166.0576 C.ar    1  UNL1        0.0551
     10 C         143.0294  139.9755  166.0334 C.ar    1  UNL1        0.0063
     11 C         142.7198  139.2393  167.3032 C.ar    1  UNL1        0.0239
     12 C         142.6077  139.9900  168.5970 C.ar    1  UNL1        0.1342
     13 N         142.8051  141.4768  168.6212 N.ar    1  UNL1       -0.2392
     14 C         143.1147  142.2129  167.3514 C.ar    1  UNL1        0.1020
     15 C         142.2981  139.2538  169.8668 C.2     1  UNL1        0.2605
     16 N         140.9163  139.3085  170.4476 N.am    1  UNL1       -0.3241
     17 O         143.3705  138.4629  170.5556 O.2     1  UNL1       -0.2687
     18 H         140.2124  139.8276  169.9955 H       1  UNL1        0.1453
     19 H         140.7131  138.8253  171.2810 H       1  UNL1        0.1453
     20 C         142.8498  143.0995  159.4884 C.3     1  UNL1        0.0294
     21 C         141.4176  142.9950  159.9219 C.3     1  UNL1        0.0730
     22 N         140.9465  143.7346  161.1389 N.3     1  UNL1       -0.2726
     23 C         140.9990  145.2196  161.3434 C.3     1  UNL1        0.0721
     24 C         140.4250  145.5217  162.6960 C.3     1  UNL1        0.0190
     25 C         140.0178  144.2234  163.3273 C.3     1  UNL1        0.0201
     26 C         139.5067  144.8232  164.6036 C.3     1  UNL1        0.0061
     27 C         139.4542  143.3382  164.3991 C.3     1  UNL1        0.0237
     28 C         140.3401  143.1189  162.3650 C.3     1  UNL1        0.0724
     29 C         139.0985  141.9697  164.8998 C.ar    1  UNL1       -0.0225
     30 C         138.2073  141.0808  164.0839 C.ar    1  UNL1       -0.0043
     31 C         137.8516  139.7123  164.5846 C.ar    1  UNL1        0.0035
     32 C         138.3872  139.2327  165.9011 C.ar    1  UNL1        0.0714
     33 C         139.2784  140.1216  166.7170 C.ar    1  UNL1        0.0035
     34 C         139.6341  141.4901  166.2163 C.ar    1  UNL1       -0.0043
     35 C         138.0315  137.8642  166.4018 C.3     1  UNL1        0.4186
     36 F         137.6757  136.4957  166.9025 F       1  UNL1       -0.1659
     37 F         138.9843  137.2559  165.4159 F       1  UNL1       -0.1659
     38 F         137.0787  138.4726  167.3877 F       1  UNL1       -0.1659
@<TRIPOS>BOND
     1     3     4    1
     2     4     5   ar
     3     5     2    1
     4     2     1    1
     5     1    20    1
     6    20    21    1
     7    21    22    1
     8    22    23    1
     9    23    24    1
    10    25    24    1
    11    25    26    1
    12    26    27    1
    13    27    29    1
    14    29    30   ar
    15    30    31   ar
    16    31    32   ar
    17    32    35    1
    18    35    36    1
    19    35    37    1
    20    35    38    1
    21    32    33   ar
    22    33    34   ar
    23    25    28    1
    24     5     6   ar
    25     6     7   ar
    26     7     8   ar
    27     8     9    1
    28     9    10   ar
    29    10    11   ar
    30    11    12   ar
    31    12    15    1
    32    15    16   am
    33    15    17    2
    34    12    13   ar
    35    13    14   ar
    36     8     4   ar
    37    14     9   ar
    38    28    22    1
    39    27    25    1
    40    34    29   ar
    41    16    18    1
    42    16    19    1
@<TRIPOS>MOLECULE
*****
 38 42 0 0 0
SMALL
GASTEIGER

@<TRIPOS>ATOM
      1 C         144.5085  141.9520  160.5633 C.3     1  UNL1        0.0666
      2 S         144.2170  140.5690  161.0655 S.3     1  UNL1       -0.0756
      3 C         145.2607  140.8760  164.1422 C.3     1  UNL1        0.1340
      4 N         143.8675  140.5201  163.7151 N.ar    1  UNL1       -0.2884
      5 C         143.3878  140.3790  162.3009 C.ar    1  UNL1        0.1932
      6 N         141.9332  140.0146  162.3390 N.ar    1  UNL1       -0.1221
      7 N         141.5139  139.9304  163.7767 N.ar    1  UNL1       -0.1282
      8 C         142.7094  140.2429  164.6273 C.ar    1  UNL1        0.1683
      9 C         142.7411  140.2728  166.1267 C.ar    1  UNL1        0.0551
     10 C         142.5572  141.5712  166.8550 C.ar    1  UNL1        0.0063
     11 C         142.5889  141.6011  168.3543 C.ar    1  UNL1        0.0239
     12 C         142.8046  140.3326  169.1253 C.ar    1  UNL1        0.1342
     13 N         142.9885  139.0342  168.3971 N.ar    1  UNL1       -0.2392
     14 C         142.9568  139.0044  166.8976 C.ar    1  UNL1        0.1020
     15 C         142.8363  140.3625  170.6247 C.2     1  UNL1        0.2605
     16 N         143.8305  139.5229  171.3708 N.am    1  UNL1       -0.3241
     17 O         141.8739  141.2320  171.3780 O.2     1  UNL1       -0.2687
     18 H         144.4623  138.9522  170.8763 H       1  UNL1        0.1453
     19 H         143.8514  139.5425  172.3548 H       1  UNL1        0.1453
     20 C         143.7024  143.1156  161.0597 C.3     1  UNL1        0.0294
     21 C         142.4782  143.5536  160.3118 C.3     1  UNL1        0.0730
     22 N         141.3231  144.1591  161.0529 N.3     1  UNL1       -0.2726
     23 C         140.8386  145.5731  160.9271 C.3     1  UNL1        0.0721
     24 C         139.6658  145.7447  161.8463 C.3     1  UNL1        0.0190
     25 C         139.4255  144.4368  162.5403 C.3     1  UNL1        0.0201
     26 C         138.2516  144.9022  163.3499 C.3     1  UNL1        0.0061
     27 C         138.7361  143.4882  163.4757 C.3     1  UNL1        0.0237
     28 C         140.4497  143.4568  162.0499 C.3     1  UNL1        0.0724
     29 C         138.6178  142.1242  164.0884 C.ar    1  UNL1       -0.0225
     30 C         139.0918  141.8887  165.4919 C.ar    1  UNL1       -0.0043
     31 C         138.9736  140.5247  166.1046 C.ar    1  UNL1        0.0035
     32 C         138.3813  139.3961  165.3138 C.ar    1  UNL1        0.0714
     33 C         137.9073  139.6315  163.9102 C.ar    1  UNL1        0.0035
     34 C         138.0256  140.9956  163.2975 C.ar    1  UNL1       -0.0043
     35 C         138.2630  138.0321  165.9265 C.3     1  UNL1        0.4186
     36 F         138.1448  136.6680  166.5392 F       1  UNL1       -0.1659
     37 F         138.8246  137.4219  164.6765 F       1  UNL1       -0.1659
     38 F         137.7015  138.6422  167.1764 F       1  UNL1       -0.1659
@<TRIPOS>BOND
     1     3     4    1
     2     4     5   ar
     3     5     2    1
     4     2     1    1
     5     1    20    1
     6    20    21    1
     7    21    22    1
     8    22    23    1
     9    23    24    1
    10    25    24    1
    11    25    26    1
    12    26    27    1
    13    27    29    1
    14    29    30   ar
    15    30    31   ar
    16    31    32   ar
    17    32    35    1
    18    35    36    1
    19    35    37    1
    20    35    38    1
    21    32    33   ar
    22    33    34   ar
    23    25    28    1
    24     5     6   ar
    25     6     7   ar
    26     7     8   ar
    27     8     9    1
    28     9    10   ar
    29    10    11   ar
    30    11    12   ar
    31    12    15    1
    32    15    16   am
    33    15    17    2
    34    12    13   ar
    35    13    14   ar
    36     8     4   ar
    37    14     9   ar
    38    28    22    1
    39    27    25    1
    40    34    29   ar
    41    16    18    1
    42    16    19    1
@<TRIPOS>MOLECULE
*****
 38 42 0 0 0
SMALL
GASTEIGER

@<TRIPOS>ATOM
      1 C         143.6948  142.6989  161.2525 C.3     1  UNL1        0.0666
      2 S         143.1430  143.7914  162.1197 S.3     1  UNL1       -0.0756
      3 C         143.8149  142.7798  165.1487 C.3     1  UNL1        0.1340
      4 N         142.4462  143.0029  164.5768 N.ar    1  UNL1       -0.2884
      5 C         142.1374  143.4679  163.1846 C.ar    1  UNL1        0.1932
      6 N         140.6464  143.5526  163.0442 N.ar    1  UNL1       -0.1221
      7 N         140.0337  143.1400  164.3497 N.ar    1  UNL1       -0.1282
      8 C         141.1460  142.8002  165.2970 C.ar    1  UNL1        0.1683
      9 C         140.9862  142.3388  166.7153 C.ar    1  UNL1        0.0551
     10 C         141.5620  141.0221  167.1450 C.ar    1  UNL1        0.0063
     11 C         141.4023  140.5607  168.5633 C.ar    1  UNL1        0.0239
     12 C         140.6666  141.4162  169.5519 C.ar    1  UNL1        0.1342
     13 N         140.0908  142.7329  169.1221 N.ar    1  UNL1       -0.2392
     14 C         140.2506  143.1942  167.7038 C.ar    1  UNL1        0.1020
     15 C         140.5068  140.9548  170.9702 C.2     1  UNL1        0.2605
     16 N         140.0592  139.5521  171.2567 N.am    1  UNL1       -0.3241
     17 O         140.7946  141.8961  172.1020 O.2     1  UNL1       -0.2687
     18 H         139.8703  138.9342  170.5138 H       1  UNL1        0.1453
     19 H         139.9544  139.2492  172.1875 H       1  UNL1        0.1453
     20 C         144.3914  141.5259  161.8762 C.3     1  UNL1        0.0294
     21 C         144.3573  140.1872  161.2005 C.3     1  UNL1        0.0730
     22 N         143.0713  139.6680  160.6290 N.3     1  UNL1       -0.2726
     23 C         142.8044  139.3742  159.1825 C.3     1  UNL1        0.0721
     24 C         141.3945  138.8761  159.0632 C.3     1  UNL1        0.0190
     25 C         140.7902  138.8619  160.4360 C.3     1  UNL1        0.0201
     26 C         139.4481  138.3441  160.0112 C.3     1  UNL1        0.0061
     27 C         139.7150  138.6378  161.4577 C.3     1  UNL1        0.0237
     28 C         141.8265  139.3513  161.4038 C.3     1  UNL1        0.0724
     29 C         139.2485  138.6779  162.8827 C.ar    1  UNL1       -0.0225
     30 C         138.6923  139.9484  163.4543 C.ar    1  UNL1       -0.0043
     31 C         138.2257  139.9886  164.8793 C.ar    1  UNL1        0.0035
     32 C         138.3153  138.7583  165.7327 C.ar    1  UNL1        0.0714
     33 C         138.8715  137.4878  165.1612 C.ar    1  UNL1        0.0035
     34 C         139.3381  137.4477  163.7362 C.ar    1  UNL1       -0.0043
     35 C         137.8488  138.7985  167.1578 C.3     1  UNL1        0.4186
     36 F         137.3822  138.8386  168.5828 F       1  UNL1       -0.1659
     37 F         138.5738  140.0961  167.3586 F       1  UNL1       -0.1659
     38 F         137.1237  137.5008  166.9569 F       1  UNL1       -0.1659
@<TRIPOS>BOND
     1     3     4    1
     2     4     5   ar
     3     5     2    1
     4     2     1    1
     5     1    20    1
     6    20    21    1
     7    21    22    1
     8    22    23    1
     9    23    24    1
    10    25    24    1
    11    25    26    1
    12    26    27    1
    13    27    29    1
    14    29    30   ar
    15    30    31   ar
    16    31    32   ar
    17    32    35    1
    18    35    36    1
    19    35    37    1
    20    35    38    1
    21    32    33   ar
    22    33    34   ar
    23    25    28    1
    24     5     6   ar
    25     6     7   ar
    26     7     8   ar
    27     8     9    1
    28     9    10   ar
    29    10    11   ar
    30    11    12   ar
    31    12    15    1
    32    15    16   am
    33    15    17    2
    34    12    13   ar
    35    13    14   ar
    36     8     4   ar
    37    14     9   ar
    38    28    22    1
    39    27    25    1
    40    34    29   ar
    41    16    18    1
    42    16    19    1
@<TRIPOS>MOLECULE
*****
 38 42 0 0 0
SMALL
GASTEIGER

@<TRIPOS>ATOM
      1 C         144.5947  142.8215  161.4737 C.3     1  UNL1        0.0666
      2 S         145.2048  141.9191  162.5049 S.3     1  UNL1       -0.0756
      3 C         144.3120  142.8362  165.5068 C.3     1  UNL1        0.1340
      4 N         143.9131  141.5648  164.8181 N.ar    1  UNL1       -0.2884
      5 C         144.3234  141.1432  163.4383 C.ar    1  UNL1        0.1932
      6 N         143.6977  139.8096  163.1557 N.ar    1  UNL1       -0.1221
      7 N         142.9006  139.4069  164.3608 N.ar    1  UNL1       -0.1282
      8 C         143.0336  140.4916  165.3883 C.ar    1  UNL1        0.1683
      9 C         142.3988  140.5014  166.7473 C.ar    1  UNL1        0.0551
     10 C         142.7506  139.4401  167.7472 C.ar    1  UNL1        0.0063
     11 C         142.1158  139.4499  169.1062 C.ar    1  UNL1        0.0239
     12 C         141.1291  140.5212  169.4653 C.ar    1  UNL1        0.1342
     13 N         140.7772  141.5826  168.4654 N.ar    1  UNL1       -0.2392
     14 C         141.4121  141.5726  167.1064 C.ar    1  UNL1        0.1020
     15 C         140.4942  140.5311  170.8243 C.2     1  UNL1        0.2605
     16 N         139.5354  139.4447  171.2121 N.am    1  UNL1       -0.3241
     17 O         140.8182  141.6273  171.7955 O.2     1  UNL1       -0.2687
     18 H         139.3228  138.7251  170.5747 H       1  UNL1        0.1453
     19 H         139.1188  139.4511  172.1040 H       1  UNL1        0.1453
     20 C         143.3877  143.6437  161.8163 C.3     1  UNL1        0.0294
     21 C         142.1483  143.5422  160.9776 C.3     1  UNL1        0.0730
     22 N         141.6726  142.2018  160.5013 N.3     1  UNL1       -0.2726
     23 C         141.8556  141.6401  159.1225 C.3     1  UNL1        0.0721
     24 C         141.2265  140.2788  159.0894 C.3     1  UNL1        0.0190
     25 C         140.6547  139.9992  160.4476 C.3     1  UNL1        0.0201
     26 C         140.1218  138.6368  160.1160 C.3     1  UNL1        0.0061
     27 C         139.9388  139.1985  161.4947 C.3     1  UNL1        0.0237
     28 C         140.9304  141.1876  161.3202 C.3     1  UNL1        0.0724
     29 C         139.4198  139.0606  162.8953 C.ar    1  UNL1       -0.0225
     30 C         138.6761  140.1955  163.5348 C.ar    1  UNL1       -0.0043
     31 C         138.1572  140.0576  164.9353 C.ar    1  UNL1        0.0035
     32 C         138.3818  138.7847  165.6964 C.ar    1  UNL1        0.0714
     33 C         139.1254  137.6497  165.0569 C.ar    1  UNL1        0.0035
     34 C         139.6444  137.7877  163.6564 C.ar    1  UNL1       -0.0043
     35 C         137.8628  138.6467  167.0970 C.3     1  UNL1        0.4186
     36 F         137.3438  138.5087  168.4976 F       1  UNL1       -0.1659
     37 F         138.5290  139.9376  167.4710 F       1  UNL1       -0.1659
     38 F         137.1967  137.3559  166.7230 F       1  UNL1       -0.1659
@<TRIPOS>BOND
     1     3     4    1
     2     4     5   ar
     3     5     2    1
     4     2     1    1
     5     1    20    1
     6    20    21    1
     7    21    22    1
     8    22    23    1
     9    23    24    1
    10    25    24    1
    11    25    26    1
    12    26    27    1
    13    27    29    1
    14    29    30   ar
    15    30    31   ar
    16    31    32   ar
    17    32    35    1
    18    35    36    1
    19    35    37    1
    20    35    38    1
    21    32    33   ar
    22    33    34   ar
    23    25    28    1
    24     5     6   ar
    25     6     7   ar
    26     7     8   ar
    27     8     9    1
    28     9    10   ar
    29    10    11   ar
    30    11    12   ar
    31    12    15    1
    32    15    16   am
    33    15    17    2
    34    12    13   ar
    35    13    14   ar
    36     8     4   ar
    37    14     9   ar
    38    28    22    1
    39    27    25    1
    40    34    29   ar
    41    16    18    1
    42    16    19    1
@<TRIPOS>MOLECULE
*****
 38 42 0 0 0
SMALL
GASTEIGER

@<TRIPOS>ATOM
      1 C         143.7210  142.2026  159.4373 C.3     1  UNL1        0.0666
      2 S         143.1630  140.8104  159.4216 S.3     1  UNL1       -0.0756
      3 C         142.8733  140.1527  162.6048 C.3     1  UNL1        0.1340
      4 N         141.7523  140.2040  161.6095 N.ar    1  UNL1       -0.2884
      5 C         141.8854  140.5063  160.1464 C.ar    1  UNL1        0.1932
      6 N         140.5167  140.4511  159.5352 N.ar    1  UNL1       -0.1221
      7 N         139.5376  140.1147  160.6206 N.ar    1  UNL1       -0.1282
      8 C         140.3012  139.9620  161.9027 C.ar    1  UNL1        0.1683
      9 C         139.7164  139.6262  163.2426 C.ar    1  UNL1        0.0551
     10 C         138.7893  140.5917  163.9196 C.ar    1  UNL1        0.0063
     11 C         138.2046  140.2559  165.2595 C.ar    1  UNL1        0.0239
     12 C         138.5469  138.9546  165.9223 C.ar    1  UNL1        0.1342
     13 N         139.4740  137.9890  165.2453 N.ar    1  UNL1       -0.2392
     14 C         140.0588  138.3249  163.9054 C.ar    1  UNL1        0.1020
     15 C         137.9622  138.6188  167.2622 C.2     1  UNL1        0.2605
     16 N         136.9507  137.5179  167.3845 N.am    1  UNL1       -0.3241
     17 O         138.3888  139.3839  168.4798 O.2     1  UNL1       -0.2687
     18 H         136.6707  137.0157  166.5854 H       1  UNL1        0.1453
     19 H         136.5669  137.2975  168.2639 H       1  UNL1        0.1453
     20 C         142.9206  143.3248  160.0290 C.3     1  UNL1        0.0294
     21 C         143.0348  143.6379  161.4915 C.3     1  UNL1        0.0730
     22 N         141.8130  144.0159  162.2752 N.3     1  UNL1       -0.2726
     23 C         140.7019  144.9054  161.8015 C.3     1  UNL1        0.0721
     24 C         139.6900  145.0100  162.9038 C.3     1  UNL1        0.0190
     25 C         140.1757  144.1852  164.0588 C.3     1  UNL1        0.0201
     26 C         139.0114  144.4750  164.9589 C.3     1  UNL1        0.0061
     27 C         140.1224  143.5855  165.4326 C.3     1  UNL1        0.0237
     28 C         141.4878  143.5708  163.6703 C.3     1  UNL1        0.0724
     29 C         140.7331  142.7258  166.4993 C.ar    1  UNL1       -0.0225
     30 C         141.6520  141.6018  166.1220 C.ar    1  UNL1       -0.0043
     31 C         142.2627  140.7420  167.1886 C.ar    1  UNL1        0.0035
     32 C         141.9546  141.0062  168.6326 C.ar    1  UNL1        0.0714
     33 C         141.0357  142.1302  169.0100 C.ar    1  UNL1        0.0035
     34 C         140.4250  142.9900  167.9433 C.ar    1  UNL1       -0.0043
     35 C         142.5653  140.1465  169.6993 C.3     1  UNL1        0.4186
     36 F         143.1760  139.2866  170.7660 F       1  UNL1       -0.1659
     37 F         143.6940  141.1241  169.8410 F       1  UNL1       -0.1659
     38 F         141.4365  139.1689  169.5576 F       1  UNL1       -0.1659
@<TRIPOS>BOND
     1     3     4    1
     2     4     5   ar
     3     5     2    1
     4     2     1    1
     5     1    20    1
     6    20    21    1
     7    21    22    1
     8    22    23    1
     9    23    24    1
    10    25    24    1
    11    25    26    1
    12    26    27    1
    13    27    29    1
    14    29    30   ar
    15    30    31   ar
    16    31    32   ar
    17    32    35    1
    18    35    36    1
    19    35    37    1
    20    35    38    1
    21    32    33   ar
    22    33    34   ar
    23    25    28    1
    24     5     6   ar
    25     6     7   ar
    26     7     8   ar
    27     8     9    1
    28     9    10   ar
    29    10    11   ar
    30    11    12   ar
    31    12    15    1
    32    15    16   am
    33    15    17    2
    34    12    13   ar
    35    13    14   ar
    36     8     4   ar
    37    14     9   ar
    38    28    22    1
    39    27    25    1
    40    34    29   ar
    41    16    18    1
    42    16    19    1
@<TRIPOS>MOLECULE
*****
 38 42 0 0 0
SMALL
GASTEIGER

@<TRIPOS>ATOM
      1 C         144.1335  139.9162  161.6234 C.3     1  UNL1        0.0666
      2 S         143.7310  141.3562  161.7433 S.3     1  UNL1       -0.0756
      3 C         141.8191  140.4366  164.2229 C.3     1  UNL1        0.1340
      4 N         142.7856  141.5836  164.2332 N.ar    1  UNL1       -0.2884
      5 C         143.6645  142.0063  163.0935 C.ar    1  UNL1        0.1932
      6 N         144.4651  143.1932  163.5409 N.ar    1  UNL1       -0.1221
      7 N         144.0811  143.5041  164.9572 N.ar    1  UNL1       -0.1282
      8 C         143.0431  142.5093  165.3852 C.ar    1  UNL1        0.1683
      9 C         142.3792  142.4506  166.7290 C.ar    1  UNL1        0.0551
     10 C         140.8972  142.6522  166.8428 C.ar    1  UNL1        0.0063
     11 C         140.2333  142.5935  168.1866 C.ar    1  UNL1        0.0239
     12 C         141.0516  142.3331  169.4166 C.ar    1  UNL1        0.1342
     13 N         142.5336  142.1314  169.3028 N.ar    1  UNL1       -0.2392
     14 C         143.1974  142.1902  167.9589 C.ar    1  UNL1        0.1020
     15 C         140.3877  142.2743  170.7604 C.2     1  UNL1        0.2605
     16 N         139.2906  143.2400  171.0978 N.am    1  UNL1       -0.3241
     17 O         140.8209  141.2499  171.7668 O.2     1  UNL1       -0.2687
     18 H         139.0063  143.9123  170.4373 H       1  UNL1        0.1453
     19 H         138.8549  143.2014  171.9798 H       1  UNL1        0.1453
     20 C         143.8127  139.1493  160.3748 C.3     1  UNL1        0.0294
     21 C         142.5778  138.3002  160.3125 C.3     1  UNL1        0.0730
     22 N         141.3239  138.8442  159.6946 N.3     1  UNL1       -0.2726
     23 C         140.7254  138.4125  158.3887 C.3     1  UNL1        0.0721
     24 C         139.4800  139.2170  158.1612 C.3     1  UNL1        0.0190
     25 C         139.3088  140.1459  159.3265 C.3     1  UNL1        0.0201
     26 C         138.0439  140.7840  158.8338 C.3     1  UNL1        0.0061
     27 C         138.6424  141.2157  160.1397 C.3     1  UNL1        0.0237
     28 C         140.4484  139.9155  160.2742 C.3     1  UNL1        0.0724
     29 C         138.6032  142.0826  161.3632 C.ar    1  UNL1       -0.0225
     30 C         137.7720  141.6763  162.5439 C.ar    1  UNL1       -0.0043
     31 C         137.7328  142.5432  163.7674 C.ar    1  UNL1        0.0035
     32 C         138.5248  143.8163  163.8102 C.ar    1  UNL1        0.0714
     33 C         139.3560  144.2226  162.6295 C.ar    1  UNL1        0.0035
     34 C         139.3952  143.3557  161.4060 C.ar    1  UNL1       -0.0043
     35 C         138.4856  144.6832  165.0337 C.3     1  UNL1        0.4186
     36 F         138.4463  145.5501  166.2573 F       1  UNL1       -0.1659
     37 F         139.9290  145.0365  164.8296 F       1  UNL1       -0.1659
     38 F         137.0422  144.3298  165.2378 F       1  UNL1       -0.1659
@<TRIPOS>BOND
     1     3     4    1
     2     4     5   ar
     3     5     2    1
     4     2     1    1
     5     1    20    1
     6    20    21    1
     7    21    22    1
     8    22    23    1
     9    23    24    1
    10    25    24    1
    11    25    26    1
    12    26    27    1
    13    27    29    1
    14    29    30   ar
    15    30    31   ar
    16    31    32   ar
    17    32    35    1
    18    35    36    1
    19    35    37    1
    20    35    38    1
    21    32    33   ar
    22    33    34   ar
    23    25    28    1
    24     5     6   ar
    25     6     7   ar
    26     7     8   ar
    27     8     9    1
    28     9    10   ar
    29    10    11   ar
    30    11    12   ar
    31    12    15    1
    32    15    16   am
    33    15    17    2
    34    12    13   ar
    35    13    14   ar
    36     8     4   ar
    37    14     9   ar
    38    28    22    1
    39    27    25    1
    40    34    29   ar
    41    16    18    1
    42    16    19    1
@<TRIPOS>MOLECULE
*****
 38 42 0 0 0
SMALL
GASTEIGER

@<TRIPOS>ATOM
      1 C         138.7464  141.2096  160.4296 C.3     1  UNL1        0.0666
      2 S         138.0229  140.3686  161.4391 S.3     1  UNL1       -0.0756
      3 C         137.7538  142.1639  164.1510 C.3     1  UNL1        0.1340
      4 N         138.5392  140.8939  164.0087 N.ar    1  UNL1       -0.2884
      5 C         138.6628  140.0686  162.7622 C.ar    1  UNL1        0.1932
      6 N         139.5388  138.8908  163.0710 N.ar    1  UNL1       -0.1221
      7 N         139.9566  138.9881  164.5084 N.ar    1  UNL1       -0.1282
      8 C         139.3388  140.2261  165.0880 C.ar    1  UNL1        0.1683
      9 C         139.4934  140.7110  166.4990 C.ar    1  UNL1        0.0551
     10 C         139.2381  139.7776  167.6451 C.ar    1  UNL1        0.0063
     11 C         139.3927  140.2626  169.0561 C.ar    1  UNL1        0.0239
     12 C         139.8027  141.6810  169.3209 C.ar    1  UNL1        0.1342
     13 N         140.0580  142.6144  168.1747 N.ar    1  UNL1       -0.2392
     14 C         139.9034  142.1294  166.7638 C.ar    1  UNL1        0.1020
     15 C         139.9573  142.1660  170.7319 C.2     1  UNL1        0.2605
     16 N         139.4281  143.5136  171.1240 N.am    1  UNL1       -0.3241
     17 O         140.6412  141.3034  171.7507 O.2     1  UNL1       -0.2687
     18 H         138.9792  144.0798  170.4553 H       1  UNL1        0.1453
     19 H         139.5296  143.8319  172.0501 H       1  UNL1        0.1453
     20 C         138.5226  142.6923  160.3901 C.3     1  UNL1        0.0294
     21 C         139.5264  143.6192  161.0093 C.3     1  UNL1        0.0730
     22 N         140.9875  143.2836  160.9597 N.3     1  UNL1       -0.2726
     23 C         141.8918  143.4548  159.7752 C.3     1  UNL1        0.0721
     24 C         143.2640  142.9949  160.1694 C.3     1  UNL1        0.0190
     25 C         143.2079  142.5395  161.5975 C.3     1  UNL1        0.0201
     26 C         144.6551  142.1582  161.6976 C.3     1  UNL1        0.0061
     27 C         143.7509  141.9870  162.8820 C.3     1  UNL1        0.0237
     28 C         141.8009  142.7179  162.0860 C.3     1  UNL1        0.0724
     29 C         143.5423  141.5692  164.3075 C.ar    1  UNL1       -0.0225
     30 C         143.5129  142.6018  165.3951 C.ar    1  UNL1       -0.0043
     31 C         143.3043  142.1840  166.8205 C.ar    1  UNL1        0.0035
     32 C         143.1251  140.7336  167.1584 C.ar    1  UNL1        0.0714
     33 C         143.1545  139.7010  166.0707 C.ar    1  UNL1        0.0035
     34 C         143.3631  140.1188  164.6453 C.ar    1  UNL1       -0.0043
     35 C         142.9165  140.3158  168.5838 C.3     1  UNL1        0.4186
     36 F         142.7079  139.8980  170.0093 F       1  UNL1       -0.1659
     37 F         142.6337  138.9139  168.1315 F       1  UNL1       -0.1659
     38 F         143.1993  141.7177  169.0361 F       1  UNL1       -0.1659
@<TRIPOS>BOND
     1     3     4    1
     2     4     5   ar
     3     5     2    1
     4     2     1    1
     5     1    20    1
     6    20    21    1
     7    21    22    1
     8    22    23    1
     9    23    24    1
    10    25    24    1
    11    25    26    1
    12    26    27    1
    13    27    29    1
    14    29    30   ar
    15    30    31   ar
    16    31    32   ar
    17    32    35    1
    18    35    36    1
    19    35    37    1
    20    35    38    1
    21    32    33   ar
    22    33    34   ar
    23    25    28    1
    24     5     6   ar
    25     6     7   ar
    26     7     8   ar
    27     8     9    1
    28     9    10   ar
    29    10    11   ar
    30    11    12   ar
    31    12    15    1
    32    15    16   am
    33    15    17    2
    34    12    13   ar
    35    13    14   ar
    36     8     4   ar
    37    14     9   ar
    38    28    22    1
    39    27    25    1
    40    34    29   ar
    41    16    18    1
    42    16    19    1
@<TRIPOS>MOLECULE
*****
 38 42 0 0 0
SMALL
GASTEIGER

@<TRIPOS>ATOM
      1 C         141.6784  144.0685  160.1460 C.3     1  UNL1        0.0666
      2 S         140.5533  144.4358  161.0675 S.3     1  UNL1       -0.0756
      3 C         142.3669  144.7616  163.7610 C.3     1  UNL1        0.1340
      4 N         141.1970  143.8381  163.5921 N.ar    1  UNL1       -0.2884
      5 C         140.3634  143.6883  162.3541 C.ar    1  UNL1        0.1932
      6 N         139.3065  142.6599  162.6285 N.ar    1  UNL1       -0.1221
      7 N         139.4868  142.1741  164.0361 N.ar    1  UNL1       -0.1282
      8 C         140.6552  142.9022  164.6318 C.ar    1  UNL1        0.1683
      9 C         141.1883  142.7255  166.0227 C.ar    1  UNL1        0.0551
     10 C         142.6069  142.2854  166.2319 C.ar    1  UNL1        0.0063
     11 C         143.1400  142.1087  167.6228 C.ar    1  UNL1        0.0239
     12 C         142.2542  142.3721  168.8045 C.ar    1  UNL1        0.1342
     13 N         140.8356  142.8121  168.5953 N.ar    1  UNL1       -0.2392
     14 C         140.3026  142.9888  167.2043 C.ar    1  UNL1        0.1020
     15 C         142.7873  142.1954  170.1954 C.2     1  UNL1        0.2605
     16 N         143.3704  140.8781  170.6134 N.am    1  UNL1       -0.3241
     17 O         142.7372  143.3359  171.1683 O.2     1  UNL1       -0.2687
     18 H         143.4032  140.1295  169.9749 H       1  UNL1        0.1453
     19 H         143.7202  140.7621  171.5263 H       1  UNL1        0.1453
     20 C         141.3861  143.4058  158.8324 C.3     1  UNL1        0.0294
     21 C         140.9769  141.9632  158.7947 C.3     1  UNL1        0.0730
     22 N         141.8723  140.9140  159.3843 N.3     1  UNL1       -0.2726
     23 C         143.1811  140.4513  158.8162 C.3     1  UNL1        0.0721
     24 C         143.7337  139.3946  159.7263 C.3     1  UNL1        0.0190
     25 C         142.7663  139.2043  160.8568 C.3     1  UNL1        0.0201
     26 C         143.5556  138.1410  161.5613 C.3     1  UNL1        0.0061
     27 C         142.2467  138.6037  162.1293 C.3     1  UNL1        0.0237
     28 C         141.6158  140.1434  160.6454 C.3     1  UNL1        0.0724
     29 C         141.1910  138.5242  163.1919 C.ar    1  UNL1       -0.0225
     30 C         141.4221  139.1653  164.5282 C.ar    1  UNL1       -0.0043
     31 C         140.3664  139.0857  165.5908 C.ar    1  UNL1        0.0035
     32 C         139.0797  138.3650  165.3172 C.ar    1  UNL1        0.0714
     33 C         138.8486  137.7239  163.9809 C.ar    1  UNL1        0.0035
     34 C         139.9043  137.8035  162.9183 C.ar    1  UNL1       -0.0043
     35 C         138.0240  138.2855  166.3798 C.3     1  UNL1        0.4186
     36 F         136.9683  138.2059  167.4425 F       1  UNL1       -0.1659
     37 F         138.0796  139.7751  166.5466 F       1  UNL1       -0.1659
     38 F         137.9684  136.7958  166.2130 F       1  UNL1       -0.1659
@<TRIPOS>BOND
     1     3     4    1
     2     4     5   ar
     3     5     2    1
     4     2     1    1
     5     1    20    1
     6    20    21    1
     7    21    22    1
     8    22    23    1
     9    23    24    1
    10    25    24    1
    11    25    26    1
    12    26    27    1
    13    27    29    1
    14    29    30   ar
    15    30    31   ar
    16    31    32   ar
    17    32    35    1
    18    35    36    1
    19    35    37    1
    20    35    38    1
    21    32    33   ar
    22    33    34   ar
    23    25    28    1
    24     5     6   ar
    25     6     7   ar
    26     7     8   ar
    27     8     9    1
    28     9    10   ar
    29    10    11   ar
    30    11    12   ar
    31    12    15    1
    32    15    16   am
    33    15    17    2
    34    12    13   ar
    35    13    14   ar
    36     8     4   ar
    37    14     9   ar
    38    28    22    1
    39    27    25    1
    40    34    29   ar
    41    16    18    1
    42    16    19    1
