@<TRIPOS>MOLECULE
*****
 33 36 0 0 0
SMALL
GASTEIGER

@<TRIPOS>ATOM
      1 C         140.3131  139.4585  164.8327 C.ar    1  UNL1        0.0522
      2 C         141.0012  140.1175  163.6742 C.ar    1  UNL1        0.0167
      3 C         140.8024  139.5890  162.2844 C.ar    1  UNL1        0.0505
      4 C         139.9155  138.4016  162.0534 C.ar    1  UNL1        0.0170
      5 C         139.2274  137.7426  163.2120 C.ar    1  UNL1        0.0307
      6 C         139.4262  138.2712  164.6016 C.ar    1  UNL1        0.1401
      7 F         138.7381  137.6122  165.7602 F       1  UNL1       -0.2044
      8 C         139.2435  140.6974  165.8525 C.3     1  UNL1        0.0601
      9 C         140.5118  139.9870  166.2224 C.3     1  UNL1        0.2163
     10 C         140.2700  140.7623  167.4837 C.3     1  UNL1        0.1614
     11 N         141.2275  140.6435  168.6321 N.ar    1  UNL1       -0.2929
     12 C         141.2499  141.2803  169.9901 C.ar    1  UNL1        0.1503
     13 C         142.4631  140.7799  170.7167 C.ar    1  UNL1        0.1285
     14 N         143.1904  139.8339  169.8077 N.ar    1  UNL1       -0.2180
     15 C         142.4268  139.7497  168.5194 C.ar    1  UNL1        0.2279
     16 C         142.6686  138.9745  167.2582 C.2     1  UNL1        0.3476
     17 N         143.8679  138.0806  167.1455 N.pl3   1  UNL1       -0.2439
     18 N         141.7110  139.0932  166.1097 N.2     1  UNL1       -0.0653
     19 H         144.4963  138.0027  167.8993 H       1  UNL1        0.2885
     20 H         144.0265  137.5718  166.3177 H       1  UNL1        0.2885
     21 C         140.2370  142.2475  170.5272 C.1     1  UNL1        0.1196
     22 N         139.2241  143.2148  171.0643 N.1     1  UNL1       -0.1893
     23 N         141.4906  140.2480  161.1259 N.am    1  UNL1       -0.2791
     24 C         142.9137  139.9013  160.8029 C.2     1  UNL1        0.2672
     25 O         143.6488  138.8956  161.6384 O.2     1  UNL1       -0.2682
     26 H         141.0081  140.9081  160.5775 H       1  UNL1        0.1552
     27 C         143.6018  140.5603  159.6443 C.ar    1  UNL1        0.1349
     28 C         144.0119  142.0002  159.7360 C.ar    1  UNL1        0.0261
     29 C         144.7000  142.6592  158.5774 C.ar    1  UNL1        0.0329
     30 C         144.9780  141.8783  157.3273 C.ar    1  UNL1        0.1592
     31 F         145.6661  142.5374  156.1687 F       1  UNL1       -0.2025
     32 C         144.5679  140.4384  157.2357 C.ar    1  UNL1        0.1285
     33 N         143.8798  139.7793  158.3942 N.ar    1  UNL1       -0.2369
@<TRIPOS>BOND
     1     9     8    1
     2     9     1    1
     3     1     2   ar
     4     2     3   ar
     5     3    23    1
     6    23    24   am
     7    24    25    2
     8    24    27    1
     9    27    28   ar
    10    28    29   ar
    11    29    30   ar
    12    30    31    1
    13    30    32   ar
    14    32    33   ar
    15     3     4   ar
    16     4     5   ar
    17     5     6   ar
    18     6     7    1
    19     9    10    1
    20    10    11    1
    21    11    12   ar
    22    12    21    1
    23    21    22    3
    24    12    13   ar
    25    13    14   ar
    26    14    15   ar
    27    15    16    1
    28    16    17    1
    29    16    18    2
    30    18     9    1
    31     6     1   ar
    32    15    11   ar
    33    33    27   ar
    34    23    26    1
    35    17    19    1
    36    17    20    1
@<TRIPOS>MOLECULE
*****
 33 36 0 0 0
SMALL
GASTEIGER

@<TRIPOS>ATOM
      1 C         139.4082  142.1961  164.4371 C.ar    1  UNL1        0.0522
      2 C         140.1171  141.4549  163.3426 C.ar    1  UNL1        0.0167
      3 C         139.6298  141.5602  161.9278 C.ar    1  UNL1        0.0505
      4 C         138.4336  142.4069  161.6077 C.ar    1  UNL1        0.0170
      5 C         137.7248  143.1481  162.7023 C.ar    1  UNL1        0.0307
      6 C         138.2121  143.0427  164.1170 C.ar    1  UNL1        0.1401
      7 F         137.5032  143.7840  165.2116 F       1  UNL1       -0.2044
      8 C         140.6021  143.3435  165.4256 C.3     1  UNL1        0.0601
      9 C         139.8955  142.0908  165.8519 C.3     1  UNL1        0.2163
     10 C         140.6282  142.4206  167.1186 C.3     1  UNL1        0.1614
     11 N         140.4850  141.5343  168.3202 N.ar    1  UNL1       -0.2929
     12 C         141.0794  141.6045  169.6957 C.ar    1  UNL1        0.1503
     13 C         140.5709  140.4318  170.4807 C.ar    1  UNL1        0.1285
     14 N         139.6623  139.6369  169.5904 N.ar    1  UNL1       -0.2180
     15 C         139.6092  140.3182  168.2552 C.ar    1  UNL1        0.2279
     16 C         138.8765  139.9885  166.9885 C.2     1  UNL1        0.3476
     17 N         138.0007  138.7725  166.9235 N.pl3   1  UNL1       -0.2439
     18 N         139.0197  140.8748  165.7869 N.2     1  UNL1       -0.0653
     19 H         137.9068  138.1908  167.7121 H       1  UNL1        0.2885
     20 H         137.5199  138.5561  166.0921 H       1  UNL1        0.2885
     21 C         142.0175  142.6617  170.1979 C.1     1  UNL1        0.1196
     22 N         142.9556  143.7189  170.7001 N.1     1  UNL1       -0.1893
     23 N         140.3387  140.8190  160.8333 N.am    1  UNL1       -0.2791
     24 C         139.8351  139.4784  160.3871 C.2     1  UNL1        0.2672
     25 O         138.6225  138.8790  161.0355 O.2     1  UNL1       -0.2682
     26 H         141.1345  141.2124  160.4078 H       1  UNL1        0.1552
     27 C         140.5440  138.7371  159.2926 C.ar    1  UNL1        0.1349
     28 C         139.8060  138.3593  158.0426 C.ar    1  UNL1        0.0261
     29 C         140.5149  137.6181  156.9481 C.ar    1  UNL1        0.0329
     30 C         141.9619  137.2547  157.1036 C.ar    1  UNL1        0.1592
     31 F         142.6708  136.5135  156.0090 F       1  UNL1       -0.2025
     32 C         142.6999  137.6326  158.3536 C.ar    1  UNL1        0.1285
     33 N         141.9910  138.3738  159.4481 N.ar    1  UNL1       -0.2369
@<TRIPOS>BOND
     1     9     8    1
     2     9     1    1
     3     1     2   ar
     4     2     3   ar
     5     3    23    1
     6    23    24   am
     7    24    25    2
     8    24    27    1
     9    27    28   ar
    10    28    29   ar
    11    29    30   ar
    12    30    31    1
    13    30    32   ar
    14    32    33   ar
    15     3     4   ar
    16     4     5   ar
    17     5     6   ar
    18     6     7    1
    19     9    10    1
    20    10    11    1
    21    11    12   ar
    22    12    21    1
    23    21    22    3
    24    12    13   ar
    25    13    14   ar
    26    14    15   ar
    27    15    16    1
    28    16    17    1
    29    16    18    2
    30    18     9    1
    31     6     1   ar
    32    15    11   ar
    33    33    27   ar
    34    23    26    1
    35    17    19    1
    36    17    20    1
@<TRIPOS>MOLECULE
*****
 33 36 0 0 0
SMALL
GASTEIGER

@<TRIPOS>ATOM
      1 C         139.7693  139.7698  164.5729 C.ar    1  UNL1        0.0522
      2 C         140.0524  140.6797  163.4145 C.ar    1  UNL1        0.0167
      3 C         139.7241  140.2407  162.0182 C.ar    1  UNL1        0.0505
      4 C         139.1128  138.8917  161.7804 C.ar    1  UNL1        0.0170
      5 C         138.8297  137.9818  162.9389 C.ar    1  UNL1        0.0307
      6 C         139.1579  138.4209  164.3351 C.ar    1  UNL1        0.1401
      7 F         138.8749  137.5110  165.4936 F       1  UNL1       -0.2044
      8 C         138.8020  140.9369  165.7650 C.3     1  UNL1        0.0601
      9 C         140.0975  140.2089  165.9692 C.3     1  UNL1        0.2163
     10 C         139.9757  140.9008  167.2945 C.3     1  UNL1        0.1614
     11 N         141.0355  140.7122  168.3391 N.ar    1  UNL1       -0.2929
     12 C         141.1855  141.2606  169.7272 C.ar    1  UNL1        0.1503
     13 C         142.4597  140.7191  170.3044 C.ar    1  UNL1        0.1285
     14 N         143.0973  139.8360  169.2730 N.ar    1  UNL1       -0.2180
     15 C         142.2171  139.8317  168.0584 C.ar    1  UNL1        0.2279
     16 C         142.3388  139.1398  166.7331 C.2     1  UNL1        0.3476
     17 N         143.5203  138.2594  166.4524 N.pl3   1  UNL1       -0.2439
     18 N         141.2790  139.3285  165.6885 N.2     1  UNL1       -0.0653
     19 H         144.2159  138.1356  167.1380 H       1  UNL1        0.2885
     20 H         143.6001  137.8053  165.5825 H       1  UNL1        0.2885
     21 C         140.2292  142.1878  170.4170 C.1     1  UNL1        0.1196
     22 N         139.2729  143.1150  171.1068 N.1     1  UNL1       -0.1893
     23 N         140.0072  141.1506  160.8599 N.am    1  UNL1       -0.2791
     24 C         139.0438  142.2473  160.5146 C.2     1  UNL1        0.2672
     25 O         137.7973  142.4340  161.3277 O.2     1  UNL1       -0.2682
     26 H         140.8254  141.0280  160.3262 H       1  UNL1        0.1552
     27 C         139.3270  143.1572  159.3561 C.ar    1  UNL1        0.1349
     28 C         139.0411  142.7004  157.9564 C.ar    1  UNL1        0.0261
     29 C         139.3243  143.6103  156.7979 C.ar    1  UNL1        0.0329
     30 C         139.8933  144.9770  157.0394 C.ar    1  UNL1        0.1592
     31 F         140.1764  145.8869  155.8810 F       1  UNL1       -0.2025
     32 C         140.1791  145.4338  158.4393 C.ar    1  UNL1        0.1285
     33 N         139.8960  144.5239  159.5977 N.ar    1  UNL1       -0.2369
@<TRIPOS>BOND
     1     9     8    1
     2     9     1    1
     3     1     2   ar
     4     2     3   ar
     5     3    23    1
     6    23    24   am
     7    24    25    2
     8    24    27    1
     9    27    28   ar
    10    28    29   ar
    11    29    30   ar
    12    30    31    1
    13    30    32   ar
    14    32    33   ar
    15     3     4   ar
    16     4     5   ar
    17     5     6   ar
    18     6     7    1
    19     9    10    1
    20    10    11    1
    21    11    12   ar
    22    12    21    1
    23    21    22    3
    24    12    13   ar
    25    13    14   ar
    26    14    15   ar
    27    15    16    1
    28    16    17    1
    29    16    18    2
    30    18     9    1
    31     6     1   ar
    32    15    11   ar
    33    33    27   ar
    34    23    26    1
    35    17    19    1
    36    17    20    1
@<TRIPOS>MOLECULE
*****
 33 36 0 0 0
SMALL
GASTEIGER

@<TRIPOS>ATOM
      1 C         140.3417  143.5701  163.2113 C.ar    1  UNL1        0.0522
      2 C         141.4221  143.2808  162.2119 C.ar    1  UNL1        0.0167
      3 C         141.6547  144.2202  161.0657 C.ar    1  UNL1        0.0505
      4 C         140.8067  145.4489  160.9192 C.ar    1  UNL1        0.0170
      5 C         139.7262  145.7381  161.9186 C.ar    1  UNL1        0.0307
      6 C         139.4937  144.7987  163.0647 C.ar    1  UNL1        0.1401
      7 F         138.4132  145.0879  164.0642 F       1  UNL1       -0.2044
      8 C         141.1794  143.5009  164.9469 C.3     1  UNL1        0.0601
      9 C         140.1091  142.6307  164.3574 C.3     1  UNL1        0.2163
     10 C         140.2483  141.9936  165.7083 C.3     1  UNL1        0.1614
     11 N         139.3979  140.8126  166.0716 N.ar    1  UNL1       -0.2929
     12 C         139.3132  139.9823  167.3180 C.ar    1  UNL1        0.1503
     13 C         138.2713  138.9253  167.1008 C.ar    1  UNL1        0.1285
     14 N         137.7121  139.1022  165.7202 N.ar    1  UNL1       -0.2180
     15 C         138.4084  140.2687  165.0841 C.ar    1  UNL1        0.2279
     16 C         138.2693  140.9058  163.7333 C.2     1  UNL1        0.3476
     17 N         137.2798  140.3619  162.7459 N.pl3   1  UNL1       -0.2439
     18 N         139.1196  142.0869  163.3700 N.2     1  UNL1       -0.0653
     19 H         136.7216  139.5868  162.9843 H       1  UNL1        0.2885
     20 H         137.1884  140.7801  161.8593 H       1  UNL1        0.2885
     21 C         140.1274  140.1752  168.5629 C.1     1  UNL1        0.1196
     22 N         140.9416  140.3681  169.8079 N.1     1  UNL1       -0.1893
     23 N         142.7352  143.9310  160.0663 N.am    1  UNL1       -0.2791
     24 C         142.4214  143.1420  158.8298 C.2     1  UNL1        0.2672
     25 O         141.0272  142.6423  158.5926 O.2     1  UNL1       -0.2682
     26 H         143.6503  144.2590  160.2220 H       1  UNL1        0.1552
     27 C         143.5020  142.8527  157.8303 C.ar    1  UNL1        0.1349
     28 C         144.9064  142.6045  158.2950 C.ar    1  UNL1        0.0261
     29 C         145.9869  142.3153  157.2956 C.ar    1  UNL1        0.0329
     30 C         145.6630  142.2742  155.8316 C.ar    1  UNL1        0.1592
     31 F         146.7435  141.9850  154.8322 F       1  UNL1       -0.2025
     32 C         144.2585  142.5224  155.3670 C.ar    1  UNL1        0.1285
     33 N         143.1780  142.8117  156.3663 N.ar    1  UNL1       -0.2369
@<TRIPOS>BOND
     1     9     8    1
     2     9     1    1
     3     1     2   ar
     4     2     3   ar
     5     3    23    1
     6    23    24   am
     7    24    25    2
     8    24    27    1
     9    27    28   ar
    10    28    29   ar
    11    29    30   ar
    12    30    31    1
    13    30    32   ar
    14    32    33   ar
    15     3     4   ar
    16     4     5   ar
    17     5     6   ar
    18     6     7    1
    19     9    10    1
    20    10    11    1
    21    11    12   ar
    22    12    21    1
    23    21    22    3
    24    12    13   ar
    25    13    14   ar
    26    14    15   ar
    27    15    16    1
    28    16    17    1
    29    16    18    2
    30    18     9    1
    31     6     1   ar
    32    15    11   ar
    33    33    27   ar
    34    23    26    1
    35    17    19    1
    36    17    20    1
@<TRIPOS>MOLECULE
*****
 33 36 0 0 0
SMALL
GASTEIGER

@<TRIPOS>ATOM
      1 C         143.3254  141.5858  164.2369 C.ar    1  UNL1        0.0522
      2 C         142.5313  140.9597  163.1291 C.ar    1  UNL1        0.0167
      3 C         143.0867  140.9233  161.7361 C.ar    1  UNL1        0.0505
      4 C         144.4362  141.5130  161.4511 C.ar    1  UNL1        0.0170
      5 C         145.2303  142.1391  162.5590 C.ar    1  UNL1        0.0307
      6 C         144.6748  142.1755  163.9520 C.ar    1  UNL1        0.1401
      7 F         145.4689  142.8016  165.0599 F       1  UNL1       -0.2044
      8 C         142.3740  142.9892  165.1557 C.3     1  UNL1        0.0601
      9 C         142.7700  141.6223  165.6299 C.3     1  UNL1        0.2163
     10 C         142.0771  142.1336  166.8581 C.3     1  UNL1        0.1614
     11 N         141.9730  141.2652  168.0768 N.ar    1  UNL1       -0.2929
     12 C         141.3535  141.4954  169.4233 C.ar    1  UNL1        0.1503
     13 C         141.5594  140.2581  170.2459 C.ar    1  UNL1        0.1285
     14 N         142.3062  139.2632  169.4078 N.ar    1  UNL1       -0.2180
     15 C         142.5619  139.8856  168.0672 C.ar    1  UNL1        0.2279
     16 C         143.2548  139.3744  166.8389 C.2     1  UNL1        0.3476
     17 N         143.8436  137.9949  166.8293 N.pl3   1  UNL1       -0.2439
     18 N         143.3588  140.2428  165.6203 N.2     1  UNL1       -0.0653
     19 H         143.7753  137.4249  167.6292 H       1  UNL1        0.2885
     20 H         144.2984  137.6594  166.0232 H       1  UNL1        0.2885
     21 C         140.6513  142.7437  169.8689 C.1     1  UNL1        0.1196
     22 N         139.9491  143.9920  170.3146 N.1     1  UNL1       -0.1893
     23 N         142.2927  140.2972  160.6282 N.am    1  UNL1       -0.2791
     24 C         142.8095  139.0716  159.9348 C.2     1  UNL1        0.2672
     25 O         144.1206  138.4721  160.3493 O.2     1  UNL1       -0.2682
     26 H         141.4322  140.6907  160.3562 H       1  UNL1        0.1552
     27 C         142.0154  138.4455  158.8269 C.ar    1  UNL1        0.1349
     28 C         142.6716  137.4763  157.8890 C.ar    1  UNL1        0.0261
     29 C         141.8774  136.8502  156.7811 C.ar    1  UNL1        0.0329
     30 C         140.4271  137.1934  156.6112 C.ar    1  UNL1        0.1592
     31 F         139.6330  136.5673  155.5033 F       1  UNL1       -0.2025
     32 C         139.7710  138.1627  157.5493 C.ar    1  UNL1        0.1285
     33 N         140.5651  138.7888  158.6571 N.ar    1  UNL1       -0.2369
@<TRIPOS>BOND
     1     9     8    1
     2     9     1    1
     3     1     2   ar
     4     2     3   ar
     5     3    23    1
     6    23    24   am
     7    24    25    2
     8    24    27    1
     9    27    28   ar
    10    28    29   ar
    11    29    30   ar
    12    30    31    1
    13    30    32   ar
    14    32    33   ar
    15     3     4   ar
    16     4     5   ar
    17     5     6   ar
    18     6     7    1
    19     9    10    1
    20    10    11    1
    21    11    12   ar
    22    12    21    1
    23    21    22    3
    24    12    13   ar
    25    13    14   ar
    26    14    15   ar
    27    15    16    1
    28    16    17    1
    29    16    18    2
    30    18     9    1
    31     6     1   ar
    32    15    11   ar
    33    33    27   ar
    34    23    26    1
    35    17    19    1
    36    17    20    1
@<TRIPOS>MOLECULE
*****
 33 36 0 0 0
SMALL
GASTEIGER

@<TRIPOS>ATOM
      1 C         139.0414  139.7704  163.3523 C.ar    1  UNL1        0.0522
      2 C         139.0613  140.9859  162.4737 C.ar    1  UNL1        0.0167
      3 C         138.5804  140.8944  161.0557 C.ar    1  UNL1        0.0505
      4 C         138.0796  139.5873  160.5165 C.ar    1  UNL1        0.0170
      5 C         138.0598  138.3717  161.3952 C.ar    1  UNL1        0.0307
      6 C         138.5407  138.4633  162.8131 C.ar    1  UNL1        0.1401
      7 F         138.5208  137.2478  163.6918 F       1  UNL1       -0.2044
      8 C         138.1106  140.3391  164.9426 C.3     1  UNL1        0.0601
      9 C         139.5223  139.8619  164.7702 C.3     1  UNL1        0.2163
     10 C         139.5128  140.1191  166.2480 C.3     1  UNL1        0.1614
     11 N         140.7480  139.8674  167.0610 N.ar    1  UNL1       -0.2929
     12 C         141.0364  140.0277  168.5242 C.ar    1  UNL1        0.1503
     13 C         142.4593  139.6178  168.7637 C.ar    1  UNL1        0.1285
     14 N         143.0502  139.2041  167.4486 N.ar    1  UNL1       -0.2180
     15 C         141.9926  139.3584  166.3962 C.ar    1  UNL1        0.2279
     16 C         142.0020  139.1012  164.9184 C.2     1  UNL1        0.3476
     17 N         143.2466  138.5922  164.2536 N.pl3   1  UNL1       -0.2439
     18 N         140.7668  139.3529  164.1055 N.2     1  UNL1       -0.0653
     19 H         144.0573  138.4270  164.7872 H       1  UNL1        0.2885
     20 H         143.2527  138.4234  163.2837 H       1  UNL1        0.2885
     21 C         140.0714  140.5127  169.5651 C.1     1  UNL1        0.1196
     22 N         139.1064  140.9978  170.6061 N.1     1  UNL1       -0.1893
     23 N         138.6003  142.1100  160.1771 N.am    1  UNL1       -0.2791
     24 C         139.7059  142.2974  159.1809 C.2     1  UNL1        0.2672
     25 O         140.7917  141.2692  159.0633 O.2     1  UNL1       -0.2682
     26 H         137.8877  142.7848  160.2543 H       1  UNL1        0.1552
     27 C         139.7258  143.5130  158.3023 C.ar    1  UNL1        0.1349
     28 C         140.3246  144.7927  158.8060 C.ar    1  UNL1        0.0261
     29 C         140.3444  146.0083  157.9274 C.ar    1  UNL1        0.0329
     30 C         139.7655  145.9441  156.5451 C.ar    1  UNL1        0.1592
     31 F         139.7854  147.1598  155.6665 F       1  UNL1       -0.2025
     32 C         139.1668  144.6644  156.0415 C.ar    1  UNL1        0.1285
     33 N         139.1469  143.4488  156.9200 N.ar    1  UNL1       -0.2369
@<TRIPOS>BOND
     1     9     8    1
     2     9     1    1
     3     1     2   ar
     4     2     3   ar
     5     3    23    1
     6    23    24   am
     7    24    25    2
     8    24    27    1
     9    27    28   ar
    10    28    29   ar
    11    29    30   ar
    12    30    31    1
    13    30    32   ar
    14    32    33   ar
    15     3     4   ar
    16     4     5   ar
    17     5     6   ar
    18     6     7    1
    19     9    10    1
    20    10    11    1
    21    11    12   ar
    22    12    21    1
    23    21    22    3
    24    12    13   ar
    25    13    14   ar
    26    14    15   ar
    27    15    16    1
    28    16    17    1
    29    16    18    2
    30    18     9    1
    31     6     1   ar
    32    15    11   ar
    33    33    27   ar
    34    23    26    1
    35    17    19    1
    36    17    20    1
@<TRIPOS>MOLECULE
*****
 33 36 0 0 0
SMALL
GASTEIGER

@<TRIPOS>ATOM
      1 C         142.6184  140.5946  164.7059 C.ar    1  UNL1        0.0522
      2 C         142.3219  141.6359  163.6678 C.ar    1  UNL1        0.0167
      3 C         142.9418  141.5347  162.3056 C.ar    1  UNL1        0.0505
      4 C         143.8581  140.3921  161.9816 C.ar    1  UNL1        0.0170
      5 C         144.1545  139.3508  163.0198 C.ar    1  UNL1        0.0307
      6 C         143.5346  139.4521  164.3819 C.ar    1  UNL1        0.1401
      7 F         143.8310  138.4107  165.4201 F       1  UNL1       -0.2044
      8 C         143.2558  141.4819  166.2950 C.3     1  UNL1        0.0601
      9 C         141.9985  140.6958  166.0682 C.3     1  UNL1        0.2163
     10 C         141.8154  141.0700  167.5092 C.3     1  UNL1        0.1614
     11 N         140.5902  140.6230  168.2502 N.ar    1  UNL1       -0.2929
     12 C         140.1389  140.8368  169.6647 C.ar    1  UNL1        0.1503
     13 C         138.8180  140.1478  169.8389 C.ar    1  UNL1        0.1285
     14 N         138.4529  139.5081  168.5321 N.ar    1  UNL1       -0.2180
     15 C         139.5482  139.8018  167.5503 C.ar    1  UNL1        0.2279
     16 C         139.7314  139.4276  166.1093 C.2     1  UNL1        0.3476
     17 N         138.6894  138.6064  165.4094 N.pl3   1  UNL1       -0.2439
     18 N         140.9566  139.8746  165.3683 N.2     1  UNL1       -0.0653
     19 H         137.8853  138.3130  165.8957 H       1  UNL1        0.2885
     20 H         138.8097  138.3608  164.4636 H       1  UNL1        0.2885
     21 C         140.8787  141.6049  170.7196 C.1     1  UNL1        0.1196
     22 N         141.6184  142.3729  171.7746 N.1     1  UNL1       -0.1893
     23 N         142.6453  142.5760  161.2675 N.am    1  UNL1       -0.2791
     24 C         141.4422  142.4324  160.3832 C.2     1  UNL1        0.2672
     25 O         140.5356  141.2474  160.5370 O.2     1  UNL1       -0.2682
     26 H         143.2404  143.3538  161.1665 H       1  UNL1        0.1552
     27 C         141.1458  143.4739  159.3450 C.ar    1  UNL1        0.1349
     28 C         140.0492  143.2471  158.3471 C.ar    1  UNL1        0.0261
     29 C         139.7528  144.2885  157.3090 C.ar    1  UNL1        0.0329
     30 C         140.5530  145.5566  157.2689 C.ar    1  UNL1        0.1592
     31 F         140.2566  146.5980  156.2308 F       1  UNL1       -0.2025
     32 C         141.6497  145.7832  158.2669 C.ar    1  UNL1        0.1285
     33 N         141.9461  144.7419  159.3050 N.ar    1  UNL1       -0.2369
@<TRIPOS>BOND
     1     9     8    1
     2     9     1    1
     3     1     2   ar
     4     2     3   ar
     5     3    23    1
     6    23    24   am
     7    24    25    2
     8    24    27    1
     9    27    28   ar
    10    28    29   ar
    11    29    30   ar
    12    30    31    1
    13    30    32   ar
    14    32    33   ar
    15     3     4   ar
    16     4     5   ar
    17     5     6   ar
    18     6     7    1
    19     9    10    1
    20    10    11    1
    21    11    12   ar
    22    12    21    1
    23    21    22    3
    24    12    13   ar
    25    13    14   ar
    26    14    15   ar
    27    15    16    1
    28    16    17    1
    29    16    18    2
    30    18     9    1
    31     6     1   ar
    32    15    11   ar
    33    33    27   ar
    34    23    26    1
    35    17    19    1
    36    17    20    1
@<TRIPOS>MOLECULE
*****
 33 36 0 0 0
SMALL
GASTEIGER

@<TRIPOS>ATOM
      1 C         141.5817  139.8212  164.5554 C.ar    1  UNL1        0.0522
      2 C         140.9647  140.5538  163.4011 C.ar    1  UNL1        0.0167
      3 C         141.1038  140.0128  162.0089 C.ar    1  UNL1        0.0505
      4 C         141.8599  138.7393  161.7712 C.ar    1  UNL1        0.0170
      5 C         142.4769  138.0067  162.9257 C.ar    1  UNL1        0.0307
      6 C         142.3377  138.5477  164.3178 C.ar    1  UNL1        0.1401
      7 F         142.9547  137.8151  165.4722 F       1  UNL1       -0.2044
      8 C         142.7078  141.0493  165.5263 C.3     1  UNL1        0.0601
      9 C         141.4427  140.3621  165.9476 C.3     1  UNL1        0.2163
     10 C         141.7431  141.1418  167.1935 C.3     1  UNL1        0.1614
     11 N         140.8266  141.0463  168.3771 N.ar    1  UNL1       -0.2929
     12 C         140.8643  141.6924  169.7303 C.ar    1  UNL1        0.1503
     13 C         139.6709  141.2166  170.5045 C.ar    1  UNL1        0.1285
     14 N         138.8956  140.2765  169.6298 N.ar    1  UNL1       -0.2180
     15 C         139.6099  140.1713  168.3149 C.ar    1  UNL1        0.2279
     16 C         139.3095  139.3917  167.0691 C.2     1  UNL1        0.3476
     17 N         138.0928  138.5167  167.0070 N.pl3   1  UNL1       -0.2439
     18 N         140.2260  139.4872  165.8855 N.2     1  UNL1       -0.0653
     19 H         137.4913  138.4540  167.7838 H       1  UNL1        0.2885
     20 H         137.8957  138.0050  166.1893 H       1  UNL1        0.2885
     21 C         141.9116  142.6466  170.2229 C.1     1  UNL1        0.1196
     22 N         142.9589  143.6009  170.7154 N.1     1  UNL1       -0.1893
     23 N         140.4868  140.7454  160.8546 N.am    1  UNL1       -0.2791
     24 C         139.2245  140.2313  160.2283 C.2     1  UNL1        0.2672
     25 O         138.5791  138.9846  160.7565 O.2     1  UNL1       -0.2682
     26 H         140.9104  141.5637  160.5079 H       1  UNL1        0.1552
     27 C         138.6075  140.9640  159.0739 C.ar    1  UNL1        0.1349
     28 C         139.0606  142.3542  158.7396 C.ar    1  UNL1        0.0261
     29 C         138.4436  143.0869  157.5852 C.ar    1  UNL1        0.0329
     30 C         137.3736  142.4292  156.7652 C.ar    1  UNL1        0.1592
     31 F         136.7566  143.1619  155.6108 F       1  UNL1       -0.2025
     32 C         136.9205  141.0389  157.0996 C.ar    1  UNL1        0.1285
     33 N         137.5374  140.3063  158.2539 N.ar    1  UNL1       -0.2369
@<TRIPOS>BOND
     1     9     8    1
     2     9     1    1
     3     1     2   ar
     4     2     3   ar
     5     3    23    1
     6    23    24   am
     7    24    25    2
     8    24    27    1
     9    27    28   ar
    10    28    29   ar
    11    29    30   ar
    12    30    31    1
    13    30    32   ar
    14    32    33   ar
    15     3     4   ar
    16     4     5   ar
    17     5     6   ar
    18     6     7    1
    19     9    10    1
    20    10    11    1
    21    11    12   ar
    22    12    21    1
    23    21    22    3
    24    12    13   ar
    25    13    14   ar
    26    14    15   ar
    27    15    16    1
    28    16    17    1
    29    16    18    2
    30    18     9    1
    31     6     1   ar
    32    15    11   ar
    33    33    27   ar
    34    23    26    1
    35    17    19    1
    36    17    20    1
@<TRIPOS>MOLECULE
*****
 33 36 0 0 0
SMALL
GASTEIGER

@<TRIPOS>ATOM
      1 C         141.1430  139.5101  164.2474 C.ar    1  UNL1        0.0522
      2 C         140.5458  140.2426  163.0826 C.ar    1  UNL1        0.0167
      3 C         140.9368  139.8712  161.6828 C.ar    1  UNL1        0.0505
      4 C         141.9249  138.7673  161.4480 C.ar    1  UNL1        0.0170
      5 C         142.5221  138.0349  162.6129 C.ar    1  UNL1        0.0307
      6 C         142.1311  138.4063  164.0126 C.ar    1  UNL1        0.1401
      7 F         142.7283  137.6739  165.1775 F       1  UNL1       -0.2044
      8 C         139.7148  138.8378  165.3553 C.3     1  UNL1        0.0601
      9 C         140.7520  139.8815  165.6472 C.3     1  UNL1        0.2163
     10 C         140.0008  139.8903  166.9456 C.3     1  UNL1        0.1614
     11 N         140.4226  140.8139  168.0497 N.ar    1  UNL1       -0.2929
     12 C         139.8792  141.0432  169.4289 C.ar    1  UNL1        0.1503
     13 C         140.7163  142.0996  170.0871 C.ar    1  UNL1        0.1285
     14 N         141.7770  142.5232  169.1147 N.ar    1  UNL1       -0.2180
     15 C         141.5955  141.7285  167.8555 C.ar    1  UNL1        0.2279
     16 C         142.3466  141.7197  166.5572 C.2     1  UNL1        0.3476
     17 N         143.5195  142.6343  166.3630 N.pl3   1  UNL1       -0.2439
     18 N         141.9249  140.7961  165.4530 N.2     1  UNL1       -0.0653
     19 H         143.7963  143.2405  167.0877 H       1  UNL1        0.2885
     20 H         144.0125  142.6285  165.5108 H       1  UNL1        0.2885
     21 C         138.7050  140.3397  170.0422 C.1     1  UNL1        0.1196
     22 N         137.5307  139.6361  170.6555 N.1     1  UNL1       -0.1893
     23 N         140.3396  140.6036  160.5180 N.am    1  UNL1       -0.2791
     24 C         138.9894  140.2097  159.9966 C.2     1  UNL1        0.2672
     25 O         138.2364  139.0833  160.6401 O.2     1  UNL1       -0.2682
     26 H         140.8338  141.3430  160.0957 H       1  UNL1        0.1552
     27 C         138.3922  140.9422  158.8317 C.ar    1  UNL1        0.1349
     28 C         138.8801  142.3162  158.4799 C.ar    1  UNL1        0.0261
     29 C         138.2830  143.0487  157.3151 C.ar    1  UNL1        0.0329
     30 C         137.1979  142.4072  156.5021 C.ar    1  UNL1        0.1592
     31 F         136.6007  143.1397  155.3372 F       1  UNL1       -0.2025
     32 C         136.7100  141.0331  156.8540 C.ar    1  UNL1        0.1285
     33 N         137.3071  140.3005  158.0188 N.ar    1  UNL1       -0.2369
@<TRIPOS>BOND
     1     9     8    1
     2     9     1    1
     3     1     2   ar
     4     2     3   ar
     5     3    23    1
     6    23    24   am
     7    24    25    2
     8    24    27    1
     9    27    28   ar
    10    28    29   ar
    11    29    30   ar
    12    30    31    1
    13    30    32   ar
    14    32    33   ar
    15     3     4   ar
    16     4     5   ar
    17     5     6   ar
    18     6     7    1
    19     9    10    1
    20    10    11    1
    21    11    12   ar
    22    12    21    1
    23    21    22    3
    24    12    13   ar
    25    13    14   ar
    26    14    15   ar
    27    15    16    1
    28    16    17    1
    29    16    18    2
    30    18     9    1
    31     6     1   ar
    32    15    11   ar
    33    33    27   ar
    34    23    26    1
    35    17    19    1
    36    17    20    1
