@<TRIPOS>MOLECULE
*****
 22 24 0 0 0
SMALL
GASTEIGER

@<TRIPOS>ATOM
      1 C         140.8285  141.3454  169.4941 C.3     1  UNL1        0.0207
      2 C         139.7314  140.3740  169.1737 C.3     1  UNL1        0.0274
      3 C         139.4137  140.0459  167.7449 C.ar    1  UNL1       -0.0258
      4 C         138.3166  139.0745  167.4245 C.ar    1  UNL1       -0.0046
      5 C         137.9989  138.7465  165.9957 C.ar    1  UNL1       -0.0003
      6 C         138.7783  139.3900  164.8873 C.ar    1  UNL1       -0.0003
      7 C         139.8753  140.3614  165.2077 C.ar    1  UNL1       -0.0043
      8 C         140.1930  140.6894  166.6365 C.ar    1  UNL1       -0.0224
      9 C         141.2901  141.6609  166.9569 C.3     1  UNL1        0.0443
     10 C         141.6078  141.9889  168.3857 C.3     1  UNL1        0.0104
     11 C         142.0695  142.3044  165.8485 C.ar    1  UNL1       -0.0175
     12 C         141.4772  143.4496  165.0819 C.ar    1  UNL1       -0.0030
     13 C         142.2565  144.0931  163.9735 C.ar    1  UNL1        0.0119
     14 C         143.6282  143.5913  163.6317 C.ar    1  UNL1        0.0682
     15 CL        144.4076  144.2348  162.5233 Cl      1  UNL1       -0.0814
     16 C         144.2205  142.4461  164.3983 C.ar    1  UNL1        0.0679
     17 CL        145.5922  141.9443  164.0565 Cl      1  UNL1       -0.0814
     18 C         143.4411  141.8027  165.5067 C.ar    1  UNL1        0.0083
     19 C         141.1462  141.6735  170.9229 C.3     1  UNL1        0.0689
     20 C         143.0351  139.8898  170.9363 C.3     1  UNL1        0.0859
     21 N         142.1572  140.8577  171.6727 N.3     1  UNL1       -0.2963
     22 H         142.7765  141.5171  172.1441 H       1  UNL1        0.1233
@<TRIPOS>BOND
     1    20    21    1
     2    21    19    1
     3     1    19    1
     4     1     2    1
     5     2     3    1
     6     3     4   ar
     7     4     5   ar
     8     5     6   ar
     9     6     7   ar
    10     7     8   ar
    11     8     9    1
    12     9    11    1
    13    11    12   ar
    14    12    13   ar
    15    13    14   ar
    16    14    15    1
    17    14    16   ar
    18    16    17    1
    19    16    18   ar
    20     9    10    1
    21    10     1    1
    22     8     3   ar
    23    18    11   ar
    24    21    22    1
@<TRIPOS>MOLECULE
*****
 22 24 0 0 0
SMALL
GASTEIGER

@<TRIPOS>ATOM
      1 C         143.9022  142.8573  164.4511 C.3     1  UNL1        0.0207
      2 C         143.2063  143.8126  163.5274 C.3     1  UNL1        0.0274
      3 C         141.7587  144.1423  163.7411 C.ar    1  UNL1       -0.0258
      4 C         141.0628  145.0976  162.8175 C.ar    1  UNL1       -0.0046
      5 C         139.6152  145.4273  163.0312 C.ar    1  UNL1       -0.0003
      6 C         138.8635  144.8017  164.1685 C.ar    1  UNL1       -0.0003
      7 C         139.5593  143.8465  165.0922 C.ar    1  UNL1       -0.0043
      8 C         141.0069  143.5168  164.8785 C.ar    1  UNL1       -0.0224
      9 C         141.7029  142.5614  165.8022 C.3     1  UNL1        0.0443
     10 C         143.1505  142.2317  165.5885 C.3     1  UNL1        0.0104
     11 C         140.9511  141.9359  166.9395 C.ar    1  UNL1       -0.0175
     12 C         140.3027  140.5948  166.7625 C.ar    1  UNL1       -0.0030
     13 C         139.5510  139.9693  167.8998 C.ar    1  UNL1        0.0119
     14 C         139.4477  140.6847  169.2142 C.ar    1  UNL1        0.0682
     15 CL        138.6959  140.0592  170.3516 Cl      1  UNL1       -0.0814
     16 C         140.0961  142.0257  169.3912 C.ar    1  UNL1        0.0679
     17 CL        139.9927  142.7412  170.7055 Cl      1  UNL1       -0.0814
     18 C         140.8478  142.6513  168.2538 C.ar    1  UNL1        0.0083
     19 C         145.3499  142.5275  164.2374 C.3     1  UNL1        0.0689
     20 C         144.8608  140.8499  162.3149 C.3     1  UNL1        0.0859
     21 N         145.7822  141.8263  162.9840 N.3     1  UNL1       -0.2963
     22 H         145.9912  142.5516  162.2979 H       1  UNL1        0.1233
@<TRIPOS>BOND
     1    20    21    1
     2    21    19    1
     3     1    19    1
     4     1     2    1
     5     2     3    1
     6     3     4   ar
     7     4     5   ar
     8     5     6   ar
     9     6     7   ar
    10     7     8   ar
    11     8     9    1
    12     9    11    1
    13    11    12   ar
    14    12    13   ar
    15    13    14   ar
    16    14    15    1
    17    14    16   ar
    18    16    17    1
    19    16    18   ar
    20     9    10    1
    21    10     1    1
    22     8     3   ar
    23    18    11   ar
    24    21    22    1
@<TRIPOS>MOLECULE
*****
 22 24 0 0 0
SMALL
GASTEIGER

@<TRIPOS>ATOM
      1 C         140.7439  140.0537  169.2851 C.3     1  UNL1        0.0207
      2 C         141.9311  139.2598  168.8267 C.3     1  UNL1        0.0274
      3 C         142.3878  139.3491  167.4006 C.ar    1  UNL1       -0.0258
      4 C         143.5750  138.5552  166.9422 C.ar    1  UNL1       -0.0046
      5 C         144.0316  138.6446  165.5162 C.ar    1  UNL1       -0.0003
      6 C         143.3010  139.5278  164.5487 C.ar    1  UNL1       -0.0003
      7 C         142.1138  140.3217  165.0071 C.ar    1  UNL1       -0.0043
      8 C         141.6572  140.2323  166.4331 C.ar    1  UNL1       -0.0224
      9 C         140.4699  141.0263  166.8916 C.3     1  UNL1        0.0443
     10 C         140.0133  140.9369  168.3176 C.3     1  UNL1        0.0104
     11 C         139.7393  141.9095  165.9241 C.ar    1  UNL1       -0.0175
     12 C         139.9738  143.3911  165.9368 C.ar    1  UNL1       -0.0030
     13 C         139.2432  144.2743  164.9693 C.ar    1  UNL1        0.0119
     14 C         138.2781  143.6760  163.9890 C.ar    1  UNL1        0.0682
     15 CL        137.5475  144.5592  163.0215 Cl      1  UNL1       -0.0814
     16 C         138.0437  142.1945  163.9764 C.ar    1  UNL1        0.0679
     17 CL        137.0787  141.5962  162.9961 Cl      1  UNL1       -0.0814
     18 C         138.7743  141.3113  164.9439 C.ar    1  UNL1        0.0083
     19 C         140.2872  139.9643  170.7112 C.3     1  UNL1        0.0689
     20 C         141.7532  142.0055  171.3703 C.3     1  UNL1        0.0859
     21 N         140.9494  140.8020  171.7646 N.3     1  UNL1       -0.2963
     22 H         140.2107  141.1319  172.3859 H       1  UNL1        0.1233
@<TRIPOS>BOND
     1    20    21    1
     2    21    19    1
     3     1    19    1
     4     1     2    1
     5     2     3    1
     6     3     4   ar
     7     4     5   ar
     8     5     6   ar
     9     6     7   ar
    10     7     8   ar
    11     8     9    1
    12     9    11    1
    13    11    12   ar
    14    12    13   ar
    15    13    14   ar
    16    14    15    1
    17    14    16   ar
    18    16    17    1
    19    16    18   ar
    20     9    10    1
    21    10     1    1
    22     8     3   ar
    23    18    11   ar
    24    21    22    1
@<TRIPOS>MOLECULE
*****
 22 24 0 0 0
SMALL
GASTEIGER

@<TRIPOS>ATOM
      1 C         139.9710  141.5192  169.2262 C.3     1  UNL1        0.0207
      2 C         139.1927  140.3160  168.7829 C.3     1  UNL1        0.0274
      3 C         139.2374  139.8806  167.3481 C.ar    1  UNL1       -0.0258
      4 C         138.4591  138.6774  166.9049 C.ar    1  UNL1       -0.0046
      5 C         138.5039  138.2421  165.4702 C.ar    1  UNL1       -0.0003
      6 C         139.3270  139.0099  164.4787 C.ar    1  UNL1       -0.0003
      7 C         140.1054  140.2131  164.9220 C.ar    1  UNL1       -0.0043
      8 C         140.0606  140.6484  166.3567 C.ar    1  UNL1       -0.0224
      9 C         140.8389  141.8516  166.8001 C.3     1  UNL1        0.0443
     10 C         140.7941  142.2870  168.2348 C.3     1  UNL1        0.0104
     11 C         141.6621  142.6194  165.8087 C.ar    1  UNL1       -0.0175
     12 C         143.1377  142.3703  165.7061 C.ar    1  UNL1       -0.0030
     13 C         143.9609  143.1381  164.7147 C.ar    1  UNL1        0.0119
     14 C         143.3084  144.1551  163.8258 C.ar    1  UNL1        0.0682
     15 CL        144.1315  144.9229  162.8344 Cl      1  UNL1       -0.0814
     16 C         141.8328  144.4042  163.9284 C.ar    1  UNL1        0.0679
     17 CL        141.1803  145.4212  163.0395 Cl      1  UNL1       -0.0814
     18 C         141.0096  143.6364  164.9198 C.ar    1  UNL1        0.0083
     19 C         139.9262  141.9546  170.6610 C.3     1  UNL1        0.0689
     20 C         142.1569  140.7697  171.2690 C.3     1  UNL1        0.0859
     21 N         140.8096  141.2895  171.6745 N.3     1  UNL1       -0.2963
     22 H         140.9678  141.9692  172.4184 H       1  UNL1        0.1233
@<TRIPOS>BOND
     1    20    21    1
     2    21    19    1
     3     1    19    1
     4     1     2    1
     5     2     3    1
     6     3     4   ar
     7     4     5   ar
     8     5     6   ar
     9     6     7   ar
    10     7     8   ar
    11     8     9    1
    12     9    11    1
    13    11    12   ar
    14    12    13   ar
    15    13    14   ar
    16    14    15    1
    17    14    16   ar
    18    16    17    1
    19    16    18   ar
    20     9    10    1
    21    10     1    1
    22     8     3   ar
    23    18    11   ar
    24    21    22    1
@<TRIPOS>MOLECULE
*****
 22 24 0 0 0
SMALL
GASTEIGER

@<TRIPOS>ATOM
      1 C         139.1882  139.3370  166.3762 C.3     1  UNL1        0.0207
      2 C         138.9355  139.5670  167.8368 C.3     1  UNL1        0.0274
      3 C         139.5382  140.7562  168.5241 C.ar    1  UNL1       -0.0258
      4 C         139.2854  140.9862  169.9847 C.ar    1  UNL1       -0.0046
      5 C         139.8882  142.1754  170.6719 C.ar    1  UNL1       -0.0003
      6 C         140.7437  143.1347  169.8987 C.ar    1  UNL1       -0.0003
      7 C         140.9964  142.9048  168.4382 C.ar    1  UNL1       -0.0043
      8 C         140.3937  141.7155  167.7509 C.ar    1  UNL1       -0.0224
      9 C         140.6465  141.4855  166.2903 C.3     1  UNL1        0.0443
     10 C         140.0437  140.2963  165.6030 C.3     1  UNL1        0.0104
     11 C         141.5020  142.4448  165.5170 C.ar    1  UNL1       -0.0175
     12 C         142.9967  142.3394  165.5851 C.ar    1  UNL1       -0.0030
     13 C         143.8522  143.2987  164.8119 C.ar    1  UNL1        0.0119
     14 C         143.2129  144.3634  163.9705 C.ar    1  UNL1        0.0682
     15 CL        144.0684  145.3226  163.1973 Cl      1  UNL1       -0.0814
     16 C         141.7182  144.4688  163.9025 C.ar    1  UNL1        0.0679
     17 CL        141.0789  145.5335  163.0612 Cl      1  UNL1       -0.0814
     18 C         140.8627  143.5095  164.6757 C.ar    1  UNL1        0.0083
     19 C         138.5855  138.1477  165.6889 C.3     1  UNL1        0.0689
     20 C         138.8330  137.7739  163.1299 C.3     1  UNL1        0.0859
     21 N         139.2962  137.5103  164.5319 N.3     1  UNL1       -0.2963
     22 H         140.2694  137.8114  164.5821 H       1  UNL1        0.1233
@<TRIPOS>BOND
     1    20    21    1
     2    21    19    1
     3     1    19    1
     4     1     2    1
     5     2     3    1
     6     3     4   ar
     7     4     5   ar
     8     5     6   ar
     9     6     7   ar
    10     7     8   ar
    11     8     9    1
    12     9    11    1
    13    11    12   ar
    14    12    13   ar
    15    13    14   ar
    16    14    15    1
    17    14    16   ar
    18    16    17    1
    19    16    18   ar
    20     9    10    1
    21    10     1    1
    22     8     3   ar
    23    18    11   ar
    24    21    22    1
@<TRIPOS>MOLECULE
*****
 22 24 0 0 0
SMALL
GASTEIGER

@<TRIPOS>ATOM
      1 C         139.2610  144.0049  163.7139 C.3     1  UNL1        0.0207
      2 C         140.6063  144.3475  163.1458 C.3     1  UNL1        0.0274
      3 C         141.8534  143.9405  163.8733 C.ar    1  UNL1       -0.0258
      4 C         143.1987  144.2831  163.3052 C.ar    1  UNL1       -0.0046
      5 C         144.4457  143.8761  164.0327 C.ar    1  UNL1       -0.0003
      6 C         144.3475  143.1265  165.3282 C.ar    1  UNL1       -0.0003
      7 C         143.0022  142.7839  165.8963 C.ar    1  UNL1       -0.0043
      8 C         141.7552  143.1909  165.1688 C.ar    1  UNL1       -0.0224
      9 C         140.4098  142.8482  165.7369 C.3     1  UNL1        0.0443
     10 C         139.1627  143.2552  165.0094 C.3     1  UNL1        0.0104
     11 C         140.3115  142.0986  167.0324 C.ar    1  UNL1       -0.0175
     12 C         140.2430  140.6001  167.0285 C.ar    1  UNL1       -0.0030
     13 C         140.1447  139.8505  168.3240 C.ar    1  UNL1        0.0119
     14 C         140.1149  140.5993  169.6235 C.ar    1  UNL1        0.0682
     15 CL        140.0166  139.8497  170.9190 Cl      1  UNL1       -0.0814
     16 C         140.1834  142.0977  169.6273 C.ar    1  UNL1        0.0679
     17 CL        140.1536  142.8466  170.9267 Cl      1  UNL1       -0.0814
     18 C         140.2817  142.8474  168.3318 C.ar    1  UNL1        0.0083
     19 C         138.0139  144.4119  162.9864 C.3     1  UNL1        0.0689
     20 C         138.0427  142.2040  161.6175 C.3     1  UNL1        0.0859
     21 N         137.5178  143.5927  161.8320 N.3     1  UNL1       -0.2963
     22 H         136.5069  143.5118  161.9412 H       1  UNL1        0.1233
@<TRIPOS>BOND
     1    20    21    1
     2    21    19    1
     3     1    19    1
     4     1     2    1
     5     2     3    1
     6     3     4   ar
     7     4     5   ar
     8     5     6   ar
     9     6     7   ar
    10     7     8   ar
    11     8     9    1
    12     9    11    1
    13    11    12   ar
    14    12    13   ar
    15    13    14   ar
    16    14    15    1
    17    14    16   ar
    18    16    17    1
    19    16    18   ar
    20     9    10    1
    21    10     1    1
    22     8     3   ar
    23    18    11   ar
    24    21    22    1
@<TRIPOS>MOLECULE
*****
 22 24 0 0 0
SMALL
GASTEIGER

@<TRIPOS>ATOM
      1 C         140.4443  141.1581  169.4369 C.3     1  UNL1        0.0207
      2 C         139.2846  140.2839  169.0617 C.3     1  UNL1        0.0274
      3 C         139.2263  139.6592  167.6991 C.ar    1  UNL1       -0.0258
      4 C         138.0666  138.7851  167.3238 C.ar    1  UNL1       -0.0046
      5 C         138.0083  138.1604  165.9614 C.ar    1  UNL1       -0.0003
      6 C         139.1097  138.4100  164.9742 C.ar    1  UNL1       -0.0003
      7 C         140.2694  139.2842  165.3494 C.ar    1  UNL1       -0.0043
      8 C         140.3277  139.9088  166.7119 C.ar    1  UNL1       -0.0224
      9 C         141.4874  140.7830  167.0872 C.3     1  UNL1        0.0443
     10 C         141.5457  141.4076  168.4497 C.3     1  UNL1        0.0104
     11 C         142.5888  141.0326  166.1000 C.ar    1  UNL1       -0.0175
     12 C         143.4134  139.8875  165.5910 C.ar    1  UNL1       -0.0030
     13 C         144.5148  140.1371  164.6037 C.ar    1  UNL1        0.0119
     14 C         144.7917  141.5317  164.1256 C.ar    1  UNL1        0.0682
     15 CL        145.8931  141.7813  163.1384 Cl      1  UNL1       -0.0814
     16 C         143.9671  142.6766  164.6347 C.ar    1  UNL1        0.0679
     17 CL        144.2440  144.0712  164.1565 Cl      1  UNL1       -0.0814
     18 C         142.8657  142.4271  165.6219 C.ar    1  UNL1        0.0083
     19 C         140.5026  141.7828  170.7995 C.3     1  UNL1        0.0689
     20 C         140.2319  144.2908  170.1782 C.3     1  UNL1        0.0859
     21 N         139.8651  143.1191  171.0398 N.3     1  UNL1       -0.2963
     22 H         138.8583  142.9866  170.9436 H       1  UNL1        0.1233
@<TRIPOS>BOND
     1    20    21    1
     2    21    19    1
     3     1    19    1
     4     1     2    1
     5     2     3    1
     6     3     4   ar
     7     4     5   ar
     8     5     6   ar
     9     6     7   ar
    10     7     8   ar
    11     8     9    1
    12     9    11    1
    13    11    12   ar
    14    12    13   ar
    15    13    14   ar
    16    14    15    1
    17    14    16   ar
    18    16    17    1
    19    16    18   ar
    20     9    10    1
    21    10     1    1
    22     8     3   ar
    23    18    11   ar
    24    21    22    1
@<TRIPOS>MOLECULE
*****
 22 24 0 0 0
SMALL
GASTEIGER

@<TRIPOS>ATOM
      1 C         140.7178  142.0832  168.9298 C.3     1  UNL1        0.0207
      2 C         140.0378  140.7483  168.8549 C.3     1  UNL1        0.0274
      3 C         139.4126  140.2962  167.5686 C.ar    1  UNL1       -0.0258
      4 C         138.7326  138.9613  167.4937 C.ar    1  UNL1       -0.0046
      5 C         138.1073  138.5092  166.2074 C.ar    1  UNL1       -0.0003
      6 C         138.1621  139.3920  164.9960 C.ar    1  UNL1       -0.0003
      7 C         138.8421  140.7269  165.0708 C.ar    1  UNL1       -0.0043
      8 C         139.4673  141.1790  166.3571 C.ar    1  UNL1       -0.0224
      9 C         140.1474  142.5139  166.4320 C.3     1  UNL1        0.0443
     10 C         140.7726  142.9660  167.7183 C.3     1  UNL1        0.0104
     11 C         140.2021  143.3967  165.2205 C.ar    1  UNL1       -0.0175
     12 C         139.0129  144.2307  164.8459 C.ar    1  UNL1       -0.0030
     13 C         139.0677  145.1135  163.6344 C.ar    1  UNL1        0.0119
     14 C         140.3116  145.1623  162.7976 C.ar    1  UNL1        0.0682
     15 CL        140.3664  146.0451  161.5861 Cl      1  UNL1       -0.0814
     16 C         141.5008  144.3284  163.1722 C.ar    1  UNL1        0.0679
     17 CL        142.7448  144.3772  162.3354 Cl      1  UNL1       -0.0814
     18 C         141.4460  143.4456  164.3837 C.ar    1  UNL1        0.0083
     19 C         141.3431  142.5354  170.2162 C.3     1  UNL1        0.0689
     20 C         143.8936  142.3034  169.7795 C.3     1  UNL1        0.0859
     21 N         142.6880  142.0093  170.6219 N.3     1  UNL1       -0.2963
     22 H         142.8810  142.3807  171.5521 H       1  UNL1        0.1233
@<TRIPOS>BOND
     1    20    21    1
     2    21    19    1
     3     1    19    1
     4     1     2    1
     5     2     3    1
     6     3     4   ar
     7     4     5   ar
     8     5     6   ar
     9     6     7   ar
    10     7     8   ar
    11     8     9    1
    12     9    11    1
    13    11    12   ar
    14    12    13   ar
    15    13    14   ar
    16    14    15    1
    17    14    16   ar
    18    16    17    1
    19    16    18   ar
    20     9    10    1
    21    10     1    1
    22     8     3   ar
    23    18    11   ar
    24    21    22    1
@<TRIPOS>MOLECULE
*****
 22 24 0 0 0
SMALL
GASTEIGER

@<TRIPOS>ATOM
      1 C         139.8030  140.6225  167.8184 C.3     1  UNL1        0.0207
      2 C         139.5141  139.2685  167.2411 C.3     1  UNL1        0.0274
      3 C         139.2732  139.1169  165.7684 C.ar    1  UNL1       -0.0258
      4 C         138.9844  137.7629  165.1911 C.ar    1  UNL1       -0.0046
      5 C         138.7435  137.6114  163.7184 C.ar    1  UNL1       -0.0003
      6 C         138.7914  138.8138  162.8229 C.ar    1  UNL1       -0.0003
      7 C         139.0802  140.1678  163.4002 C.ar    1  UNL1       -0.0043
      8 C         139.3211  140.3193  164.8729 C.ar    1  UNL1       -0.0224
      9 C         139.6099  141.6734  165.4502 C.3     1  UNL1        0.0443
     10 C         139.8508  141.8249  166.9229 C.3     1  UNL1        0.0104
     11 C         139.6578  142.8758  164.5548 C.ar    1  UNL1       -0.0175
     12 C         138.3901  143.4308  163.9759 C.ar    1  UNL1       -0.0030
     13 C         138.4380  144.6333  163.0805 C.ar    1  UNL1        0.0119
     14 C         139.7536  145.2807  162.7638 C.ar    1  UNL1        0.0682
     15 CL        139.8015  146.4831  161.8684 Cl      1  UNL1       -0.0814
     16 C         141.0212  144.7256  163.3427 C.ar    1  UNL1        0.0679
     17 CL        142.3368  145.3730  163.0260 Cl      1  UNL1       -0.0814
     18 C         140.9733  143.5232  164.2381 C.ar    1  UNL1        0.0083
     19 C         140.0439  140.7741  169.2912 C.3     1  UNL1        0.0689
     20 C         142.1129  139.3468  169.9481 C.3     1  UNL1        0.0859
     21 N         140.6482  139.6452  170.0724 N.3     1  UNL1       -0.2963
     22 H         140.4700  139.8403  171.0576 H       1  UNL1        0.1233
@<TRIPOS>BOND
     1    20    21    1
     2    21    19    1
     3     1    19    1
     4     1     2    1
     5     2     3    1
     6     3     4   ar
     7     4     5   ar
     8     5     6   ar
     9     6     7   ar
    10     7     8   ar
    11     8     9    1
    12     9    11    1
    13    11    12   ar
    14    12    13   ar
    15    13    14   ar
    16    14    15    1
    17    14    16   ar
    18    16    17    1
    19    16    18   ar
    20     9    10    1
    21    10     1    1
    22     8     3   ar
    23    18    11   ar
    24    21    22    1
