@<TRIPOS>MOLECULE
*****
 34 38 0 0 0
SMALL
GASTEIGER

@<TRIPOS>ATOM
      1 O         145.4400  141.7030  161.7876 O.2     1  UNL1       -0.2745
      2 C         144.5926  142.5327  162.7061 C.2     1  UNL1        0.2301
      3 N         143.4335  143.3114  162.1584 N.am    1  UNL1       -0.2791
      4 C         142.5020  144.1804  162.9503 C.3     1  UNL1        0.0952
      5 C         141.4951  144.7638  162.0039 C.3     1  UNL1        0.0442
      6 C         141.8042  144.2553  160.6270 C.3     1  UNL1        0.0579
      7 C         143.0022  143.3576  160.7225 C.3     1  UNL1        0.0967
      8 C         141.9282  143.8748  159.1813 C.3     1  UNL1        0.0941
      9 N         140.7349  144.7234  158.8557 N.pl3   1  UNL1       -0.3073
     10 C         140.6109  145.1039  160.3014 C.3     1  UNL1        0.0941
     11 C         139.9788  145.0544  157.6032 C.ar    1  UNL1        0.0478
     12 C         139.9625  146.4627  157.0870 C.ar    1  UNL1        0.0145
     13 C         139.2064  146.7937  155.8345 C.ar    1  UNL1        0.0013
     14 C         138.4666  145.7165  155.0982 C.ar    1  UNL1        0.0001
     15 C         138.4829  144.3082  155.6144 C.ar    1  UNL1        0.0013
     16 C         139.2390  143.9772  156.8669 C.ar    1  UNL1        0.0145
     17 C         144.9046  142.5838  164.1725 C.3     1  UNL1        0.1116
     18 C         144.0081  141.8897  165.1546 C.ar    1  UNL1       -0.0129
     19 C         143.4998  142.6277  166.3576 C.ar    1  UNL1       -0.0007
     20 C         142.6033  141.9337  167.3397 C.ar    1  UNL1        0.0363
     21 C         142.2151  140.5017  167.1188 C.ar    1  UNL1        0.1337
     22 O         141.3185  139.8076  168.1010 O.3     1  UNL1       -0.5055
     23 C         142.7234  139.7638  165.9159 C.ar    1  UNL1        0.0363
     24 C         143.6199  140.4578  164.9338 C.ar    1  UNL1       -0.0007
     25 H         141.0010  140.2686  168.8524 H       1  UNL1        0.2922
     26 C         140.3756  145.6926  162.3701 C.3     1  UNL1        0.0888
     27 N         139.5600  145.4349  163.6022 N.pl3   1  UNL1       -0.3326
     28 H         139.3416  146.1764  164.2120 H       1  UNL1        0.1468
     29 C         139.0770  144.0475  163.9055 C.ar    1  UNL1        0.0446
     30 C         137.9648  143.4473  163.0976 C.ar    1  UNL1        0.0143
     31 C         137.4817  142.0599  163.4008 C.ar    1  UNL1        0.0013
     32 C         138.1110  141.2727  164.5118 C.ar    1  UNL1        0.0001
     33 C         139.2233  141.8730  165.3197 C.ar    1  UNL1        0.0013
     34 C         139.7063  143.2604  165.0165 C.ar    1  UNL1        0.0143
@<TRIPOS>BOND
     1     1     2    2
     2     2    17    1
     3    17    18    1
     4    18    19   ar
     5    19    20   ar
     6    20    21   ar
     7    21    22    1
     8    21    23   ar
     9    23    24   ar
    10     2     3   am
    11     3     4    1
    12     4     5    1
    13     5    26    1
    14    26    27    1
    15    27    29    1
    16    29    30   ar
    17    30    31   ar
    18    31    32   ar
    19    32    33   ar
    20    33    34   ar
    21     5     6    1
    22     6     7    1
    23     6     8    1
    24     8     9    1
    25     9    11    1
    26    11    12   ar
    27    12    13   ar
    28    13    14   ar
    29    14    15   ar
    30    15    16   ar
    31     9    10    1
    32    24    18   ar
    33     7     3    1
    34    16    11   ar
    35    34    29   ar
    36    10     6    1
    37    22    25    1
    38    27    28    1
@<TRIPOS>MOLECULE
*****
 34 38 0 0 0
SMALL
GASTEIGER

@<TRIPOS>ATOM
      1 O         144.4614  143.4441  165.8252 O.2     1  UNL1       -0.2745
      2 C         143.4082  142.4010  165.5959 C.2     1  UNL1        0.2301
      3 N         142.6425  142.3789  164.3063 N.am    1  UNL1       -0.2791
      4 C         141.5662  141.4017  163.9366 C.3     1  UNL1        0.0952
      5 C         141.0772  141.7490  162.5617 C.3     1  UNL1        0.0442
      6 C         141.8512  142.9408  162.0818 C.3     1  UNL1        0.0579
      7 C         142.8186  143.3301  163.1599 C.3     1  UNL1        0.0967
      8 C         142.4960  144.1146  161.4060 C.3     1  UNL1        0.0941
      9 N         141.6186  143.9063  160.2072 N.pl3   1  UNL1       -0.3073
     10 C         140.9738  142.7326  160.8831 C.3     1  UNL1        0.0941
     11 C         141.4541  144.5890  158.8817 C.ar    1  UNL1        0.0478
     12 C         142.4269  144.3179  157.7727 C.ar    1  UNL1        0.0145
     13 C         142.2624  145.0006  156.4472 C.ar    1  UNL1        0.0013
     14 C         141.1251  145.9544  156.2308 C.ar    1  UNL1        0.0001
     15 C         140.1523  146.2254  157.3399 C.ar    1  UNL1        0.0013
     16 C         140.3168  145.5428  158.6654 C.ar    1  UNL1        0.0145
     17 C         143.1207  141.3798  166.6565 C.3     1  UNL1        0.1116
     18 C         142.2811  141.7476  167.8438 C.ar    1  UNL1       -0.0129
     19 C         142.8881  142.5096  168.9845 C.ar    1  UNL1       -0.0007
     20 C         142.0485  142.8774  170.1718 C.ar    1  UNL1        0.0363
     21 C         140.6020  142.4832  170.2185 C.ar    1  UNL1        0.1337
     22 O         139.7623  142.8510  171.4059 O.3     1  UNL1       -0.5055
     23 C         139.9950  141.7213  169.0779 C.ar    1  UNL1        0.0363
     24 C         140.8346  141.3535  167.8905 C.ar    1  UNL1       -0.0007
     25 H         140.1415  143.3270  172.1184 H       1  UNL1        0.2922
     26 C         140.0027  141.0306  161.8005 C.3     1  UNL1        0.0888
     27 N         138.6823  140.7475  162.4535 N.pl3   1  UNL1       -0.3326
     28 H         137.8621  141.1685  162.1081 H       1  UNL1        0.1468
     29 C         138.6116  139.8230  163.6326 C.ar    1  UNL1        0.0446
     30 C         139.0232  138.3880  163.4862 C.ar    1  UNL1        0.0143
     31 C         138.9525  137.4634  164.6653 C.ar    1  UNL1        0.0013
     32 C         138.4703  137.9739  165.9908 C.ar    1  UNL1        0.0001
     33 C         138.0587  139.4090  166.1372 C.ar    1  UNL1        0.0013
     34 C         138.1294  140.3335  164.9580 C.ar    1  UNL1        0.0143
@<TRIPOS>BOND
     1     1     2    2
     2     2    17    1
     3    17    18    1
     4    18    19   ar
     5    19    20   ar
     6    20    21   ar
     7    21    22    1
     8    21    23   ar
     9    23    24   ar
    10     2     3   am
    11     3     4    1
    12     4     5    1
    13     5    26    1
    14    26    27    1
    15    27    29    1
    16    29    30   ar
    17    30    31   ar
    18    31    32   ar
    19    32    33   ar
    20    33    34   ar
    21     5     6    1
    22     6     7    1
    23     6     8    1
    24     8     9    1
    25     9    11    1
    26    11    12   ar
    27    12    13   ar
    28    13    14   ar
    29    14    15   ar
    30    15    16   ar
    31     9    10    1
    32    24    18   ar
    33     7     3    1
    34    16    11   ar
    35    34    29   ar
    36    10     6    1
    37    22    25    1
    38    27    28    1
@<TRIPOS>MOLECULE
*****
 34 38 0 0 0
SMALL
GASTEIGER

@<TRIPOS>ATOM
      1 O         139.6098  145.8313  160.3579 O.2     1  UNL1       -0.2745
      2 C         140.2962  145.0549  161.4423 C.2     1  UNL1        0.2301
      3 N         141.5076  144.2300  161.1225 N.am    1  UNL1       -0.2791
      4 C         142.2950  143.4052  162.0969 C.3     1  UNL1        0.0952
      5 C         143.4183  142.7506  161.3486 C.3     1  UNL1        0.0442
      6 C         143.3250  143.1710  159.9118 C.3     1  UNL1        0.0579
      7 C         142.1442  144.0853  159.7720 C.3     1  UNL1        0.0967
      8 C         143.4224  143.4571  158.4425 C.3     1  UNL1        0.0941
      9 N         144.6335  142.5767  158.3513 N.pl3   1  UNL1       -0.3073
     10 C         144.5361  142.2905  159.8206 C.3     1  UNL1        0.0941
     11 C         145.5586  142.1564  157.2480 C.ar    1  UNL1        0.0478
     12 C         146.9264  142.7634  157.1440 C.ar    1  UNL1        0.0145
     13 C         147.8516  142.3432  156.0407 C.ar    1  UNL1        0.0013
     14 C         147.4090  141.3160  155.0412 C.ar    1  UNL1        0.0001
     15 C         146.0413  140.7090  155.1451 C.ar    1  UNL1        0.0013
     16 C         145.1161  141.1292  156.2485 C.ar    1  UNL1        0.0145
     17 C         139.7713  145.1033  162.8467 C.3     1  UNL1        0.1116
     18 C         139.2678  143.8518  163.5027 C.ar    1  UNL1       -0.0129
     19 C         139.9257  143.3426  164.7509 C.ar    1  UNL1       -0.0007
     20 C         139.4222  142.0912  165.4069 C.ar    1  UNL1        0.0363
     21 C         138.2609  141.3490  164.8148 C.ar    1  UNL1        0.1337
     22 O         137.7574  140.0975  165.4709 O.3     1  UNL1       -0.5055
     23 C         137.6031  141.8583  163.5667 C.ar    1  UNL1        0.0363
     24 C         138.1066  143.1097  162.9106 C.ar    1  UNL1       -0.0007
     25 H         138.1683  139.7794  166.2506 H       1  UNL1        0.2922
     26 C         144.4531  141.8363  161.9344 C.3     1  UNL1        0.0888
     27 N         145.0012  142.1042  163.3047 N.pl3   1  UNL1       -0.3326
     28 H         145.8717  142.5524  163.4077 H       1  UNL1        0.1468
     29 C         144.2231  141.6892  164.5181 C.ar    1  UNL1        0.0446
     30 C         143.8364  140.2521  164.7058 C.ar    1  UNL1        0.0143
     31 C         143.0582  139.8370  165.9192 C.ar    1  UNL1        0.0013
     32 C         142.6669  140.8591  166.9449 C.ar    1  UNL1        0.0001
     33 C         143.0536  142.2963  166.7572 C.ar    1  UNL1        0.0013
     34 C         143.8317  142.7113  165.5439 C.ar    1  UNL1        0.0143
@<TRIPOS>BOND
     1     1     2    2
     2     2    17    1
     3    17    18    1
     4    18    19   ar
     5    19    20   ar
     6    20    21   ar
     7    21    22    1
     8    21    23   ar
     9    23    24   ar
    10     2     3   am
    11     3     4    1
    12     4     5    1
    13     5    26    1
    14    26    27    1
    15    27    29    1
    16    29    30   ar
    17    30    31   ar
    18    31    32   ar
    19    32    33   ar
    20    33    34   ar
    21     5     6    1
    22     6     7    1
    23     6     8    1
    24     8     9    1
    25     9    11    1
    26    11    12   ar
    27    12    13   ar
    28    13    14   ar
    29    14    15   ar
    30    15    16   ar
    31     9    10    1
    32    24    18   ar
    33     7     3    1
    34    16    11   ar
    35    34    29   ar
    36    10     6    1
    37    22    25    1
    38    27    28    1
@<TRIPOS>MOLECULE
*****
 34 38 0 0 0
SMALL
GASTEIGER

@<TRIPOS>ATOM
      1 O         138.6919  137.5716  164.0221 O.2     1  UNL1       -0.2745
      2 C         138.4900  138.9261  164.6341 C.2     1  UNL1        0.2301
      3 N         138.4346  140.1436  163.7597 N.am    1  UNL1       -0.2791
      4 C         138.2393  141.5558  164.2259 C.3     1  UNL1        0.0952
      5 C         138.2488  142.4476  163.0198 C.3     1  UNL1        0.0442
      6 C         138.4499  141.5865  161.8082 C.3     1  UNL1        0.0579
      7 C         138.5647  140.1626  162.2654 C.3     1  UNL1        0.0967
      8 C         138.6398  140.9264  160.4747 C.3     1  UNL1        0.0941
      9 N         138.5536  142.2636  159.8005 N.pl3   1  UNL1       -0.3073
     10 C         138.3637  142.9237  161.1341 C.3     1  UNL1        0.0941
     11 C         138.6270  142.7425  158.3809 C.ar    1  UNL1        0.0478
     12 C         137.4750  142.5071  157.4495 C.ar    1  UNL1        0.0145
     13 C         137.5483  142.9860  156.0299 C.ar    1  UNL1        0.0013
     14 C         138.7737  143.7001  155.5416 C.ar    1  UNL1        0.0001
     15 C         139.9257  143.9354  156.4729 C.ar    1  UNL1        0.0013
     16 C         139.8523  143.4566  157.8926 C.ar    1  UNL1        0.0145
     17 C         138.3436  139.0631  166.1207 C.3     1  UNL1        0.1116
     18 C         139.5090  139.5132  166.9508 C.ar    1  UNL1       -0.0129
     19 C         139.2977  139.9311  168.3759 C.ar    1  UNL1       -0.0007
     20 C         140.4631  140.3813  169.2060 C.ar    1  UNL1        0.0363
     21 C         141.8398  140.4136  168.6111 C.ar    1  UNL1        0.1337
     22 O         143.0052  140.8638  169.4413 O.3     1  UNL1       -0.5055
     23 C         142.0510  139.9957  167.1861 C.ar    1  UNL1        0.0363
     24 C         140.8855  139.5456  166.3559 C.ar    1  UNL1       -0.0007
     25 H         142.8733  141.1248  170.3315 H       1  UNL1        0.2922
     26 C         138.0857  143.9387  163.0245 C.3     1  UNL1        0.0888
     27 N         138.9237  144.7819  163.9393 N.pl3   1  UNL1       -0.3326
     28 H         138.5057  145.5000  164.4674 H       1  UNL1        0.1468
     29 C         140.3984  144.5310  164.0495 C.ar    1  UNL1        0.0446
     30 C         141.3564  145.3006  163.1893 C.ar    1  UNL1        0.0143
     31 C         142.8312  145.0498  163.2994 C.ar    1  UNL1        0.0013
     32 C         143.3480  144.0294  164.2697 C.ar    1  UNL1        0.0001
     33 C         142.3900  143.2597  165.1300 C.ar    1  UNL1        0.0013
     34 C         140.9152  143.5106  165.0198 C.ar    1  UNL1        0.0143
@<TRIPOS>BOND
     1     1     2    2
     2     2    17    1
     3    17    18    1
     4    18    19   ar
     5    19    20   ar
     6    20    21   ar
     7    21    22    1
     8    21    23   ar
     9    23    24   ar
    10     2     3   am
    11     3     4    1
    12     4     5    1
    13     5    26    1
    14    26    27    1
    15    27    29    1
    16    29    30   ar
    17    30    31   ar
    18    31    32   ar
    19    32    33   ar
    20    33    34   ar
    21     5     6    1
    22     6     7    1
    23     6     8    1
    24     8     9    1
    25     9    11    1
    26    11    12   ar
    27    12    13   ar
    28    13    14   ar
    29    14    15   ar
    30    15    16   ar
    31     9    10    1
    32    24    18   ar
    33     7     3    1
    34    16    11   ar
    35    34    29   ar
    36    10     6    1
    37    22    25    1
    38    27    28    1
@<TRIPOS>MOLECULE
*****
 34 38 0 0 0
SMALL
GASTEIGER

@<TRIPOS>ATOM
      1 O         139.6851  144.6694  163.3233 O.2     1  UNL1       -0.2745
      2 C         140.5775  143.6753  164.0056 C.2     1  UNL1        0.2301
      3 N         141.7344  143.0733  163.2646 N.am    1  UNL1       -0.2791
      4 C         142.7076  142.0721  163.8126 C.3     1  UNL1        0.0952
      5 C         143.6959  141.7468  162.7320 C.3     1  UNL1        0.0442
      6 C         143.3334  142.5470  161.5163 C.3     1  UNL1        0.0579
      7 C         142.1212  143.3669  161.8453 C.3     1  UNL1        0.0967
      8 C         143.1564  143.2433  160.1994 C.3     1  UNL1        0.0941
      9 N         144.3558  142.5235  159.6576 N.pl3   1  UNL1       -0.3073
     10 C         144.5328  141.8272  160.9745 C.3     1  UNL1        0.0941
     11 C         145.0787  142.5068  158.3434 C.ar    1  UNL1        0.0478
     12 C         144.3508  142.1144  157.0920 C.ar    1  UNL1        0.0145
     13 C         145.0737  142.0978  155.7778 C.ar    1  UNL1        0.0013
     14 C         146.5245  142.4735  155.7150 C.ar    1  UNL1        0.0001
     15 C         147.2524  142.8659  156.9665 C.ar    1  UNL1        0.0013
     16 C         146.5295  142.8826  158.2807 C.ar    1  UNL1        0.0145
     17 C         140.3129  143.2833  165.4292 C.3     1  UNL1        0.1116
     18 C         139.7044  141.9476  165.7386 C.ar    1  UNL1       -0.0129
     19 C         140.0925  141.2188  166.9909 C.ar    1  UNL1       -0.0007
     20 C         139.4840  139.8831  167.3003 C.ar    1  UNL1        0.0363
     21 C         138.4876  139.2763  166.3574 C.ar    1  UNL1        0.1337
     22 O         137.8791  137.9406  166.6669 O.3     1  UNL1       -0.5055
     23 C         138.0996  140.0052  165.1052 C.ar    1  UNL1        0.0363
     24 C         138.7081  141.3409  164.7958 C.ar    1  UNL1       -0.0007
     25 H         138.1215  137.4853  167.4491 H       1  UNL1        0.2922
     26 C         144.8448  140.7894  162.8472 C.3     1  UNL1        0.0888
     27 N         144.6742  139.4993  163.5931 N.pl3   1  UNL1       -0.3326
     28 H         145.4173  139.1383  164.1286 H       1  UNL1        0.1468
     29 C         143.3714  138.7591  163.5231 C.ar    1  UNL1        0.0446
     30 C         142.7990  138.3726  162.1916 C.ar    1  UNL1        0.0143
     31 C         141.4962  137.6324  162.1215 C.ar    1  UNL1        0.0013
     32 C         140.7659  137.2787  163.3830 C.ar    1  UNL1        0.0001
     33 C         141.3383  137.6652  164.7146 C.ar    1  UNL1        0.0013
     34 C         142.6411  138.4054  164.7846 C.ar    1  UNL1        0.0143
@<TRIPOS>BOND
     1     1     2    2
     2     2    17    1
     3    17    18    1
     4    18    19   ar
     5    19    20   ar
     6    20    21   ar
     7    21    22    1
     8    21    23   ar
     9    23    24   ar
    10     2     3   am
    11     3     4    1
    12     4     5    1
    13     5    26    1
    14    26    27    1
    15    27    29    1
    16    29    30   ar
    17    30    31   ar
    18    31    32   ar
    19    32    33   ar
    20    33    34   ar
    21     5     6    1
    22     6     7    1
    23     6     8    1
    24     8     9    1
    25     9    11    1
    26    11    12   ar
    27    12    13   ar
    28    13    14   ar
    29    14    15   ar
    30    15    16   ar
    31     9    10    1
    32    24    18   ar
    33     7     3    1
    34    16    11   ar
    35    34    29   ar
    36    10     6    1
    37    22    25    1
    38    27    28    1
@<TRIPOS>MOLECULE
*****
 34 38 0 0 0
SMALL
GASTEIGER

@<TRIPOS>ATOM
      1 O         138.3108  145.1892  162.4192 O.2     1  UNL1       -0.2745
      2 C         139.7313  145.1570  161.9385 C.2     1  UNL1        0.2301
      3 N         140.7922  144.5071  162.7764 N.am    1  UNL1       -0.2791
      4 C         142.2472  144.3986  162.4284 C.3     1  UNL1        0.0952
      5 C         142.9386  143.6761  163.5464 C.3     1  UNL1        0.0442
      6 C         141.9109  143.3381  164.5854 C.3     1  UNL1        0.0579
      7 C         140.5843  143.8517  164.1096 C.3     1  UNL1        0.0967
      8 C         141.0617  142.9026  165.7427 C.3     1  UNL1        0.0941
      9 N         142.2704  142.3136  166.4079 N.pl3   1  UNL1       -0.3073
     10 C         143.1195  142.7491  165.2505 C.3     1  UNL1        0.0941
     11 C         142.5246  141.5892  167.6965 C.ar    1  UNL1        0.0478
     12 C         142.1634  140.1391  167.8256 C.ar    1  UNL1        0.0145
     13 C         142.4176  139.4147  169.1143 C.ar    1  UNL1        0.0013
     14 C         143.0330  140.1404  170.2738 C.ar    1  UNL1        0.0001
     15 C         143.3942  141.5905  170.1447 C.ar    1  UNL1        0.0013
     16 C         143.1400  142.3149  168.8560 C.ar    1  UNL1        0.0145
     17 C         140.0908  145.7746  160.6196 C.3     1  UNL1        0.1116
     18 C         140.5353  144.9055  159.4807 C.ar    1  UNL1       -0.0129
     19 C         141.5502  145.4148  158.5005 C.ar    1  UNL1       -0.0007
     20 C         141.9947  144.5457  157.3616 C.ar    1  UNL1        0.0363
     21 C         141.4244  143.1674  157.2030 C.ar    1  UNL1        0.1337
     22 O         141.8690  142.2983  156.0640 O.3     1  UNL1       -0.5055
     23 C         140.4096  142.6583  158.1832 C.ar    1  UNL1        0.0363
     24 C         139.9651  143.5274  159.3221 C.ar    1  UNL1       -0.0007
     25 H         142.5029  142.6164  155.4517 H       1  UNL1        0.2922
     26 C         144.4009  143.3490  163.6136 C.3     1  UNL1        0.0888
     27 N         145.1365  142.9431  162.3710 N.pl3   1  UNL1       -0.3326
     28 H         145.9672  143.4065  162.1171 H       1  UNL1        0.1468
     29 C         144.6065  141.8311  161.5151 C.ar    1  UNL1        0.0446
     30 C         144.1493  142.1150  160.1150 C.ar    1  UNL1        0.0143
     31 C         143.6192  141.0030  159.2590 C.ar    1  UNL1        0.0013
     32 C         143.5465  139.6071  159.8032 C.ar    1  UNL1        0.0001
     33 C         144.0037  139.3232  161.2034 C.ar    1  UNL1        0.0013
     34 C         144.5338  140.4352  162.0593 C.ar    1  UNL1        0.0143
@<TRIPOS>BOND
     1     1     2    2
     2     2    17    1
     3    17    18    1
     4    18    19   ar
     5    19    20   ar
     6    20    21   ar
     7    21    22    1
     8    21    23   ar
     9    23    24   ar
    10     2     3   am
    11     3     4    1
    12     4     5    1
    13     5    26    1
    14    26    27    1
    15    27    29    1
    16    29    30   ar
    17    30    31   ar
    18    31    32   ar
    19    32    33   ar
    20    33    34   ar
    21     5     6    1
    22     6     7    1
    23     6     8    1
    24     8     9    1
    25     9    11    1
    26    11    12   ar
    27    12    13   ar
    28    13    14   ar
    29    14    15   ar
    30    15    16   ar
    31     9    10    1
    32    24    18   ar
    33     7     3    1
    34    16    11   ar
    35    34    29   ar
    36    10     6    1
    37    22    25    1
    38    27    28    1
@<TRIPOS>MOLECULE
*****
 34 38 0 0 0
SMALL
GASTEIGER

@<TRIPOS>ATOM
      1 O         143.1563  139.1115  166.2822 O.2     1  UNL1       -0.2745
      2 C         141.7032  139.4832  166.2716 C.2     1  UNL1        0.2301
      3 N         140.9495  139.5271  164.9754 N.am    1  UNL1       -0.2791
      4 C         139.5011  139.8797  164.8092 C.3     1  UNL1        0.0952
      5 C         139.1684  139.7965  163.3489 C.3     1  UNL1        0.0442
      6 C         140.4112  139.3925  162.6127 C.3     1  UNL1        0.0579
      7 C         141.5120  139.2259  163.6179 C.3     1  UNL1        0.0967
      8 C         141.5209  139.0002  161.6827 C.3     1  UNL1        0.0941
      9 N         140.5821  139.1067  160.5176 N.pl3   1  UNL1       -0.3073
     10 C         139.4724  139.4989  161.4476 C.3     1  UNL1        0.0941
     11 C         140.7029  138.9047  159.0362 C.ar    1  UNL1        0.0478
     12 C         141.7191  139.6824  158.2536 C.ar    1  UNL1        0.0145
     13 C         141.8399  139.4803  156.7722 C.ar    1  UNL1        0.0013
     14 C         140.9445  138.5006  156.0734 C.ar    1  UNL1        0.0001
     15 C         139.9284  137.7228  156.8560 C.ar    1  UNL1        0.0013
     16 C         139.8076  137.9249  158.3374 C.ar    1  UNL1        0.0145
     17 C         141.0037  139.8113  167.5574 C.3     1  UNL1        0.1116
     18 C         141.5434  140.8881  168.4513 C.ar    1  UNL1       -0.0129
     19 C         142.9388  140.7846  168.9919 C.ar    1  UNL1       -0.0007
     20 C         143.4785  141.8615  169.8857 C.ar    1  UNL1        0.0363
     21 C         142.6228  143.0418  170.2390 C.ar    1  UNL1        0.1337
     22 O         143.1626  144.1187  171.1330 O.3     1  UNL1       -0.5055
     23 C         141.2275  143.1452  169.6984 C.ar    1  UNL1        0.0363
     24 C         140.6878  142.0684  168.8046 C.ar    1  UNL1       -0.0007
     25 H         144.0343  144.0541  171.4707 H       1  UNL1        0.2922
     26 C         137.8282  140.0694  162.7331 C.3     1  UNL1        0.0888
     27 N         137.0522  141.2885  163.1352 N.pl3   1  UNL1       -0.3326
     28 H         136.0789  141.2299  163.2708 H       1  UNL1        0.1468
     29 C         137.7593  142.5969  163.3306 C.ar    1  UNL1        0.0446
     30 C         137.8504  143.2030  164.6996 C.ar    1  UNL1        0.0143
     31 C         138.5575  144.5114  164.8952 C.ar    1  UNL1        0.0013
     32 C         139.1735  145.2137  163.7216 C.ar    1  UNL1        0.0001
     33 C         139.0824  144.6075  162.3524 C.ar    1  UNL1        0.0013
     34 C         138.3753  143.2991  162.1570 C.ar    1  UNL1        0.0143
@<TRIPOS>BOND
     1     1     2    2
     2     2    17    1
     3    17    18    1
     4    18    19   ar
     5    19    20   ar
     6    20    21   ar
     7    21    22    1
     8    21    23   ar
     9    23    24   ar
    10     2     3   am
    11     3     4    1
    12     4     5    1
    13     5    26    1
    14    26    27    1
    15    27    29    1
    16    29    30   ar
    17    30    31   ar
    18    31    32   ar
    19    32    33   ar
    20    33    34   ar
    21     5     6    1
    22     6     7    1
    23     6     8    1
    24     8     9    1
    25     9    11    1
    26    11    12   ar
    27    12    13   ar
    28    13    14   ar
    29    14    15   ar
    30    15    16   ar
    31     9    10    1
    32    24    18   ar
    33     7     3    1
    34    16    11   ar
    35    34    29   ar
    36    10     6    1
    37    22    25    1
    38    27    28    1
@<TRIPOS>MOLECULE
*****
 34 38 0 0 0
SMALL
GASTEIGER

@<TRIPOS>ATOM
      1 O         143.3421  144.1396  161.3457 O.2     1  UNL1       -0.2745
      2 C         141.8644  143.9322  161.1922 C.2     1  UNL1        0.2301
      3 N         141.0450  143.4786  162.3639 N.am    1  UNL1       -0.2791
      4 C         139.5657  143.2300  162.3618 C.3     1  UNL1        0.0952
      5 C         139.1675  142.7917  163.7400 C.3     1  UNL1        0.0442
      6 C         140.4006  142.7693  164.5936 C.3     1  UNL1        0.0579
      7 C         141.5609  143.1938  163.7432 C.3     1  UNL1        0.0967
      8 C         141.4904  142.6761  165.6202 C.3     1  UNL1        0.0941
      9 N         140.4881  142.2316  166.6439 N.pl3   1  UNL1       -0.3073
     10 C         139.3983  142.3247  165.6173 C.3     1  UNL1        0.0941
     11 C         140.5500  141.8514  168.0936 C.ar    1  UNL1        0.0478
     12 C         140.4166  142.9060  169.1519 C.ar    1  UNL1        0.0145
     13 C         140.4785  142.5258  170.6016 C.ar    1  UNL1        0.0013
     14 C         140.6738  141.0910  170.9930 C.ar    1  UNL1        0.0001
     15 C         140.8071  140.0364  169.9347 C.ar    1  UNL1        0.0013
     16 C         140.7452  140.4166  168.4850 C.ar    1  UNL1        0.0145
     17 C         141.2062  144.1785  159.8670 C.3     1  UNL1        0.1116
     18 C         140.5466  143.0472  159.1355 C.ar    1  UNL1       -0.0129
     19 C         141.3230  141.8026  158.8224 C.ar    1  UNL1       -0.0007
     20 C         140.6633  140.6713  158.0909 C.ar    1  UNL1        0.0363
     21 C         139.2273  140.7847  157.6725 C.ar    1  UNL1        0.1337
     22 O         138.5677  139.6534  156.9410 O.3     1  UNL1       -0.5055
     23 C         138.4510  142.0294  157.9856 C.ar    1  UNL1        0.0363
     24 C         139.1106  143.1606  158.7171 C.ar    1  UNL1       -0.0007
     25 H         139.0526  138.8759  156.7453 H       1  UNL1        0.2922
     26 C         137.7797  142.4378  164.1860 C.3     1  UNL1        0.0888
     27 N         137.0169  141.3577  163.4779 N.pl3   1  UNL1       -0.3326
     28 H         136.0343  141.3983  163.4318 H       1  UNL1        0.1468
     29 C         137.7510  140.2158  162.8399 C.ar    1  UNL1        0.0446
     30 C         137.8389  140.1221  161.3454 C.ar    1  UNL1        0.0143
     31 C         138.5731  138.9802  160.7074 C.ar    1  UNL1        0.0013
     32 C         139.2194  137.9320  161.5639 C.ar    1  UNL1        0.0001
     33 C         139.1315  138.0257  163.0584 C.ar    1  UNL1        0.0013
     34 C         138.3973  139.1677  163.6964 C.ar    1  UNL1        0.0143
@<TRIPOS>BOND
     1     1     2    2
     2     2    17    1
     3    17    18    1
     4    18    19   ar
     5    19    20   ar
     6    20    21   ar
     7    21    22    1
     8    21    23   ar
     9    23    24   ar
    10     2     3   am
    11     3     4    1
    12     4     5    1
    13     5    26    1
    14    26    27    1
    15    27    29    1
    16    29    30   ar
    17    30    31   ar
    18    31    32   ar
    19    32    33   ar
    20    33    34   ar
    21     5     6    1
    22     6     7    1
    23     6     8    1
    24     8     9    1
    25     9    11    1
    26    11    12   ar
    27    12    13   ar
    28    13    14   ar
    29    14    15   ar
    30    15    16   ar
    31     9    10    1
    32    24    18   ar
    33     7     3    1
    34    16    11   ar
    35    34    29   ar
    36    10     6    1
    37    22    25    1
    38    27    28    1
@<TRIPOS>MOLECULE
*****
 34 38 0 0 0
SMALL
GASTEIGER

@<TRIPOS>ATOM
      1 O         142.8384  139.2548  166.5833 O.2     1  UNL1       -0.2745
      2 C         142.8186  140.6293  165.9830 C.2     1  UNL1        0.2301
      3 N         142.5699  140.8027  164.5139 N.am    1  UNL1       -0.2791
      4 C         142.5215  142.1076  163.7759 C.3     1  UNL1        0.0952
      5 C         142.2476  141.8129  162.3308 C.3     1  UNL1        0.0442
      6 C         142.1269  140.3259  162.1758 C.3     1  UNL1        0.0579
      7 C         142.3260  139.7015  163.5250 C.3     1  UNL1        0.0967
      8 C         141.9687  138.8842  161.7929 C.3     1  UNL1        0.0941
      9 N         141.7419  139.2881  160.3661 N.pl3   1  UNL1       -0.3073
     10 C         141.9001  140.7298  160.7491 C.3     1  UNL1        0.0941
     11 C         141.4697  138.5543  159.0865 C.ar    1  UNL1        0.0478
     12 C         142.5902  137.8691  158.3619 C.ar    1  UNL1        0.0145
     13 C         142.3180  137.1353  157.0823 C.ar    1  UNL1        0.0013
     14 C         140.9254  137.0866  156.5273 C.ar    1  UNL1        0.0001
     15 C         139.8049  137.7717  157.2519 C.ar    1  UNL1        0.0013
     16 C         140.0771  138.5056  158.5315 C.ar    1  UNL1        0.0145
     17 C         143.0476  141.8305  166.8518 C.3     1  UNL1        0.1116
     18 C         142.3660  141.9334  168.1840 C.ar    1  UNL1       -0.0129
     19 C         141.0484  142.6409  168.2996 C.ar    1  UNL1       -0.0007
     20 C         140.3668  142.7437  169.6319 C.ar    1  UNL1        0.0363
     21 C         141.0028  142.1392  170.8484 C.ar    1  UNL1        0.1337
     22 O         140.3212  142.2421  172.1807 O.3     1  UNL1       -0.5055
     23 C         142.3204  141.4317  170.7328 C.ar    1  UNL1        0.0363
     24 C         143.0020  141.3288  169.4005 C.ar    1  UNL1       -0.0007
     25 H         139.4981  142.6840  172.2530 H       1  UNL1        0.2922
     26 C         142.1174  142.8273  161.2335 C.3     1  UNL1        0.0888
     27 N         141.3434  144.0906  161.4678 N.pl3   1  UNL1       -0.3326
     28 H         141.6130  144.9237  161.0180 H       1  UNL1        0.1468
     29 C         140.1584  144.0844  162.3875 C.ar    1  UNL1        0.0446
     30 C         138.9060  143.3597  161.9923 C.ar    1  UNL1        0.0143
     31 C         137.7210  143.3535  162.9119 C.ar    1  UNL1        0.0013
     32 C         137.7884  144.0721  164.2269 C.ar    1  UNL1        0.0001
     33 C         139.0409  144.7969  164.6222 C.ar    1  UNL1        0.0013
     34 C         140.2258  144.8030  163.7025 C.ar    1  UNL1        0.0143
@<TRIPOS>BOND
     1     1     2    2
     2     2    17    1
     3    17    18    1
     4    18    19   ar
     5    19    20   ar
     6    20    21   ar
     7    21    22    1
     8    21    23   ar
     9    23    24   ar
    10     2     3   am
    11     3     4    1
    12     4     5    1
    13     5    26    1
    14    26    27    1
    15    27    29    1
    16    29    30   ar
    17    30    31   ar
    18    31    32   ar
    19    32    33   ar
    20    33    34   ar
    21     5     6    1
    22     6     7    1
    23     6     8    1
    24     8     9    1
    25     9    11    1
    26    11    12   ar
    27    12    13   ar
    28    13    14   ar
    29    14    15   ar
    30    15    16   ar
    31     9    10    1
    32    24    18   ar
    33     7     3    1
    34    16    11   ar
    35    34    29   ar
    36    10     6    1
    37    22    25    1
    38    27    28    1
