@<TRIPOS>MOLECULE
*****
 28 31 0 0 0
SMALL
GASTEIGER

@<TRIPOS>ATOM
      1 N         140.7599  140.0902  165.4779 N.ar    1  UNL1       -0.2915
      2 C         141.4728  140.5278  164.2328 C.ar    1  UNL1        0.1658
      3 N         140.4999  140.4592  163.0931 N.ar    1  UNL1       -0.2282
      4 C         139.1857  139.9792  163.6339 C.ar    1  UNL1        0.0885
      5 C         139.3464  139.7511  165.1077 C.ar    1  UNL1        0.0580
      6 C         138.2807  139.2686  166.0466 C.3     1  UNL1        0.0517
      7 C         143.1438  139.7549  170.9738 C.3     1  UNL1        0.0521
      8 C         142.5478  139.8387  169.5998 C.ar    1  UNL1        0.0595
      9 C         141.4144  140.7835  169.3303 C.ar    1  UNL1        0.0162
     10 C         140.8184  140.8673  167.9563 C.ar    1  UNL1        0.0203
     11 C         141.3559  140.0064  166.8518 C.ar    1  UNL1        0.0842
     12 C         142.4893  139.0616  167.1214 C.ar    1  UNL1        0.1159
     13 N         143.0853  138.9778  168.4953 N.ar    1  UNL1       -0.2466
     14 C         142.9069  140.9585  164.1430 C.ar    1  UNL1        0.1261
     15 N         143.9723  139.9547  163.8151 N.ar    1  UNL1       -0.2399
     16 C         145.4064  140.3854  163.7254 C.ar    1  UNL1        0.0990
     17 C         145.7750  141.8197  163.9635 C.ar    1  UNL1        0.0215
     18 C         144.7096  142.8234  164.2914 C.ar    1  UNL1        0.0146
     19 C         143.2756  142.3927  164.3812 C.ar    1  UNL1        0.0783
     20 CL        142.2102  143.3966  164.7091 Cl      1  UNL1       -0.0806
     21 C         137.9311  139.7648  162.8402 C.3     1  UNL1        0.1163
     22 N         137.0411  140.9278  162.5154 N.3     1  UNL1       -0.2935
     23 H         136.1356  140.7340  162.9431 H       1  UNL1        0.1236
     24 C         137.4324  142.3126  162.9386 C.3     1  UNL1        0.0543
     25 C         137.9730  143.3883  162.0438 C.3     1  UNL1        0.0157
     26 C         138.2264  144.6054  162.8830 C.3     1  UNL1        0.0014
     27 C         137.8425  144.2820  164.2966 C.3     1  UNL1        0.0014
     28 C         137.3517  142.8649  164.3308 C.3     1  UNL1        0.0157
@<TRIPOS>BOND
     1     7     8    1
     2     8     9   ar
     3     9    10   ar
     4    10    11   ar
     5    11     1    1
     6     1     2   ar
     7     2    14    1
     8    14    15   ar
     9    15    16   ar
    10    16    17   ar
    11    17    18   ar
    12    18    19   ar
    13    19    20    1
    14     2     3   ar
    15     3     4   ar
    16     4    21    1
    17    21    22    1
    18    22    24    1
    19    24    25    1
    20    25    26    1
    21    26    27    1
    22    27    28    1
    23     4     5   ar
    24     5     6    1
    25    11    12   ar
    26    12    13   ar
    27    13     8   ar
    28     5     1   ar
    29    19    14   ar
    30    28    24    1
    31    22    23    1
@<TRIPOS>MOLECULE
*****
 28 31 0 0 0
SMALL
GASTEIGER

@<TRIPOS>ATOM
      1 N         140.7530  140.0969  165.4746 N.ar    1  UNL1       -0.2915
      2 C         141.4603  140.5353  164.2267 C.ar    1  UNL1        0.1658
      3 N         140.4812  140.4717  163.0921 N.ar    1  UNL1       -0.2282
      4 C         139.1686  139.9939  163.6388 C.ar    1  UNL1        0.0885
      5 C         139.3366  139.7623  165.1113 C.ar    1  UNL1        0.0580
      6 C         138.2746  139.2806  166.0548 C.3     1  UNL1        0.0517
      7 C         143.1652  139.7435  170.9570 C.3     1  UNL1        0.0521
      8 C         142.5622  139.8319  169.5864 C.ar    1  UNL1        0.0595
      9 C         141.4400  140.7912  169.3212 C.ar    1  UNL1        0.0162
     10 C         140.8369  140.8795  167.9506 C.ar    1  UNL1        0.0203
     11 C         141.3560  140.0085  166.8452 C.ar    1  UNL1        0.0842
     12 C         142.4782  139.0492  167.1104 C.ar    1  UNL1        0.1159
     13 N         143.0812  138.9609  168.4810 N.ar    1  UNL1       -0.2466
     14 C         142.8950  140.9624  164.1302 C.ar    1  UNL1        0.1261
     15 N         143.2938  142.3495  164.5389 N.ar    1  UNL1       -0.2399
     16 C         144.7284  142.7766  164.4425 C.ar    1  UNL1        0.0990
     17 C         145.7644  141.8166  163.9373 C.ar    1  UNL1        0.0215
     18 C         145.3657  140.4296  163.5286 C.ar    1  UNL1        0.0146
     19 C         143.9310  140.0025  163.6250 C.ar    1  UNL1        0.0783
     20 CL        143.5323  138.6154  163.2163 Cl      1  UNL1       -0.0806
     21 C         137.9092  139.7846  162.8514 C.3     1  UNL1        0.1163
     22 N         137.0309  140.9536  162.5167 N.3     1  UNL1       -0.2935
     23 H         136.1218  140.7699  162.9412 H       1  UNL1        0.1236
     24 C         137.4323  142.3371  162.9345 C.3     1  UNL1        0.0543
     25 C         137.3689  142.8908  164.3271 C.3     1  UNL1        0.0157
     26 C         137.8650  144.3058  164.2864 C.3     1  UNL1        0.0014
     27 C         138.2350  144.6267  162.8685 C.3     1  UNL1        0.0014
     28 C         137.9675  143.4099  162.0330 C.3     1  UNL1        0.0157
@<TRIPOS>BOND
     1     7     8    1
     2     8     9   ar
     3     9    10   ar
     4    10    11   ar
     5    11     1    1
     6     1     2   ar
     7     2    14    1
     8    14    15   ar
     9    15    16   ar
    10    16    17   ar
    11    17    18   ar
    12    18    19   ar
    13    19    20    1
    14     2     3   ar
    15     3     4   ar
    16     4    21    1
    17    21    22    1
    18    22    24    1
    19    24    25    1
    20    25    26    1
    21    26    27    1
    22    27    28    1
    23     4     5   ar
    24     5     6    1
    25    11    12   ar
    26    12    13   ar
    27    13     8   ar
    28     5     1   ar
    29    19    14   ar
    30    28    24    1
    31    22    23    1
@<TRIPOS>MOLECULE
*****
 28 31 0 0 0
SMALL
GASTEIGER

@<TRIPOS>ATOM
      1 N         139.3746  140.8251  165.3804 N.ar    1  UNL1       -0.2915
      2 C         140.2856  141.8977  165.8997 C.ar    1  UNL1        0.1658
      3 N         140.4097  141.7219  167.3842 N.ar    1  UNL1       -0.2282
      4 C         139.5754  140.5407  167.7824 C.ar    1  UNL1        0.0885
      5 C         138.9357  139.9864  166.5440 C.ar    1  UNL1        0.0580
      6 C         138.0181  138.8015  166.4804 C.3     1  UNL1        0.0517
      7 C         137.7685  140.0292  159.6544 C.3     1  UNL1        0.0521
      8 C         138.1701  140.2282  161.0859 C.ar    1  UNL1        0.0595
      9 C         139.3836  139.5330  161.6281 C.ar    1  UNL1        0.0162
     10 C         139.7851  139.7320  163.0596 C.ar    1  UNL1        0.0203
     11 C         138.9731  140.6261  163.9489 C.ar    1  UNL1        0.0842
     12 C         137.7596  141.3213  163.4068 C.ar    1  UNL1        0.1159
     13 N         137.3580  141.1223  161.9753 N.ar    1  UNL1       -0.2466
     14 C         140.9551  142.9596  165.0786 C.ar    1  UNL1        0.1261
     15 N         142.3882  142.7970  164.6666 N.ar    1  UNL1       -0.2399
     16 C         143.0577  143.8590  163.8455 C.ar    1  UNL1        0.0990
     17 C         142.2940  145.0835  163.4365 C.ar    1  UNL1        0.0215
     18 C         140.8609  145.2461  163.8486 C.ar    1  UNL1        0.0146
     19 C         140.1915  144.1841  164.6696 C.ar    1  UNL1        0.0783
     20 CL        138.7583  144.3469  165.0816 Cl      1  UNL1       -0.0806
     21 C         139.4098  140.0073  169.1746 C.3     1  UNL1        0.1163
     22 N         140.6064  139.8530  170.0659 N.3     1  UNL1       -0.2935
     23 H         141.0812  138.9980  169.7759 H       1  UNL1        0.1236
     24 C         141.6480  140.9310  170.1163 C.3     1  UNL1        0.0543
     25 C         141.4808  142.2908  170.7271 C.3     1  UNL1        0.0157
     26 C         142.7693  143.0388  170.5530 C.3     1  UNL1        0.0014
     27 C         143.7329  142.1413  169.8345 C.3     1  UNL1        0.0014
     28 C         143.0398  140.8387  169.5646 C.3     1  UNL1        0.0157
@<TRIPOS>BOND
     1     7     8    1
     2     8     9   ar
     3     9    10   ar
     4    10    11   ar
     5    11     1    1
     6     1     2   ar
     7     2    14    1
     8    14    15   ar
     9    15    16   ar
    10    16    17   ar
    11    17    18   ar
    12    18    19   ar
    13    19    20    1
    14     2     3   ar
    15     3     4   ar
    16     4    21    1
    17    21    22    1
    18    22    24    1
    19    24    25    1
    20    25    26    1
    21    26    27    1
    22    27    28    1
    23     4     5   ar
    24     5     6    1
    25    11    12   ar
    26    12    13   ar
    27    13     8   ar
    28     5     1   ar
    29    19    14   ar
    30    28    24    1
    31    22    23    1
@<TRIPOS>MOLECULE
*****
 28 31 0 0 0
SMALL
GASTEIGER

@<TRIPOS>ATOM
      1 N         141.9629  139.4267  165.3988 N.ar    1  UNL1       -0.2915
      2 C         140.9036  140.3785  165.8699 C.ar    1  UNL1        0.1658
      3 N         141.0141  140.4940  167.3613 N.ar    1  UNL1       -0.2282
      4 C         142.1418  139.6136  167.8121 C.ar    1  UNL1        0.0885
      5 C         142.7281  138.9540  166.5992 C.ar    1  UNL1        0.0580
      6 C         143.8779  137.9907  166.5886 C.3     1  UNL1        0.0517
      7 C         142.9634  137.7964  159.7119 C.3     1  UNL1        0.0521
      8 C         142.7133  138.2040  161.1336 C.ar    1  UNL1        0.0595
      9 C         141.4934  137.7087  161.8523 C.ar    1  UNL1        0.0162
     10 C         141.2433  138.1162  163.2740 C.ar    1  UNL1        0.0203
     11 C         142.2130  139.0191  163.9771 C.ar    1  UNL1        0.0842
     12 C         143.4329  139.5144  163.2585 C.ar    1  UNL1        0.1159
     13 N         143.6831  139.1068  161.8367 N.ar    1  UNL1       -0.2466
     14 C         139.9084  141.0899  165.0018 C.ar    1  UNL1        0.1261
     15 N         140.2402  142.4357  164.4283 N.ar    1  UNL1       -0.2399
     16 C         139.2450  143.1471  163.5602 C.ar    1  UNL1        0.0990
     17 C         137.9180  142.5128  163.2657 C.ar    1  UNL1        0.0215
     18 C         137.5863  141.1671  163.8392 C.ar    1  UNL1        0.0146
     19 C         138.5814  140.4557  164.7072 C.ar    1  UNL1        0.0783
     20 CL        138.2495  139.1099  165.2807 Cl      1  UNL1       -0.0806
     21 C         142.6023  139.4258  169.2273 C.3     1  UNL1        0.1163
     22 N         142.8266  140.6194  170.1076 N.3     1  UNL1       -0.2935
     23 H         143.6878  141.0631  169.7884 H       1  UNL1        0.1236
     24 C         141.7876  141.6982  170.1876 C.3     1  UNL1        0.0543
     25 C         141.9336  143.1024  169.6806 C.3     1  UNL1        0.0157
     26 C         140.6563  143.8343  169.9682 C.3     1  UNL1        0.0014
     27 C         139.7208  142.8825  170.6530 C.3     1  UNL1        0.0014
     28 C         140.4200  141.5623  170.7886 C.3     1  UNL1        0.0157
@<TRIPOS>BOND
     1     7     8    1
     2     8     9   ar
     3     9    10   ar
     4    10    11   ar
     5    11     1    1
     6     1     2   ar
     7     2    14    1
     8    14    15   ar
     9    15    16   ar
    10    16    17   ar
    11    17    18   ar
    12    18    19   ar
    13    19    20    1
    14     2     3   ar
    15     3     4   ar
    16     4    21    1
    17    21    22    1
    18    22    24    1
    19    24    25    1
    20    25    26    1
    21    26    27    1
    22    27    28    1
    23     4     5   ar
    24     5     6    1
    25    11    12   ar
    26    12    13   ar
    27    13     8   ar
    28     5     1   ar
    29    19    14   ar
    30    28    24    1
    31    22    23    1
@<TRIPOS>MOLECULE
*****
 28 31 0 0 0
SMALL
GASTEIGER

@<TRIPOS>ATOM
      1 N         139.7568  141.5013  166.0792 N.ar    1  UNL1       -0.2915
      2 C         139.4707  140.0510  165.8247 C.ar    1  UNL1        0.1658
      3 N         139.4283  139.3475  167.1488 N.ar    1  UNL1       -0.2282
      4 C         139.6881  140.3631  168.2218 C.ar    1  UNL1        0.0885
      5 C         139.8911  141.6942  167.5607 C.ar    1  UNL1        0.0580
      6 C         140.1781  142.9906  168.2586 C.3     1  UNL1        0.0517
      7 C         140.2730  145.7798  161.9045 C.3     1  UNL1        0.0521
      8 C         140.1439  144.7101  162.9482 C.ar    1  UNL1        0.0595
      9 C         138.8656  144.5652  163.7194 C.ar    1  UNL1        0.0162
     10 C         138.7366  143.4955  164.7631 C.ar    1  UNL1        0.0203
     11 C         139.8858  142.5709  165.0355 C.ar    1  UNL1        0.0842
     12 C         141.1641  142.7159  164.2643 C.ar    1  UNL1        0.1159
     13 N         141.2932  143.7855  163.2206 N.ar    1  UNL1       -0.2466
     14 C         139.2635  139.4157  164.4818 C.ar    1  UNL1        0.1261
     15 N         138.1281  139.8611  163.6085 N.ar    1  UNL1       -0.2399
     16 C         137.9208  139.2257  162.2656 C.ar    1  UNL1        0.0990
     17 C         138.8490  138.1450  161.7959 C.ar    1  UNL1        0.0215
     18 C         139.9843  137.6996  162.6692 C.ar    1  UNL1        0.0146
     19 C         140.1915  138.3350  164.0121 C.ar    1  UNL1        0.0783
     20 CL        141.3270  137.8895  164.8853 Cl      1  UNL1       -0.0806
     21 C         139.7364  140.0947  169.6968 C.3     1  UNL1        0.1163
     22 N         141.0589  139.9605  170.3918 N.3     1  UNL1       -0.2935
     23 H         141.5139  139.1350  170.0021 H       1  UNL1        0.1236
     24 C         142.0578  141.0775  170.3252 C.3     1  UNL1        0.0543
     25 C         143.2564  141.1360  169.4251 C.3     1  UNL1        0.0157
     26 C         143.9729  142.4268  169.6906 C.3     1  UNL1        0.0014
     27 C         143.2172  143.1661  170.7548 C.3     1  UNL1        0.0014
     28 C         142.0336  142.3321  171.1469 C.3     1  UNL1        0.0157
@<TRIPOS>BOND
     1     7     8    1
     2     8     9   ar
     3     9    10   ar
     4    10    11   ar
     5    11     1    1
     6     1     2   ar
     7     2    14    1
     8    14    15   ar
     9    15    16   ar
    10    16    17   ar
    11    17    18   ar
    12    18    19   ar
    13    19    20    1
    14     2     3   ar
    15     3     4   ar
    16     4    21    1
    17    21    22    1
    18    22    24    1
    19    24    25    1
    20    25    26    1
    21    26    27    1
    22    27    28    1
    23     4     5   ar
    24     5     6    1
    25    11    12   ar
    26    12    13   ar
    27    13     8   ar
    28     5     1   ar
    29    19    14   ar
    30    28    24    1
    31    22    23    1
@<TRIPOS>MOLECULE
*****
 28 31 0 0 0
SMALL
GASTEIGER

@<TRIPOS>ATOM
      1 N         140.4952  141.2919  165.5406 N.ar    1  UNL1       -0.2915
      2 C         140.8088  141.8427  164.1811 C.ar    1  UNL1        0.1658
      3 N         139.9937  141.0857  163.1749 N.ar    1  UNL1       -0.2282
      4 C         139.1763  140.0670  163.9126 C.ar    1  UNL1        0.0885
      5 C         139.4863  140.1945  165.3747 C.ar    1  UNL1        0.0580
      6 C         138.8916  139.3694  166.4772 C.3     1  UNL1        0.0517
      7 C         142.8613  143.1520  170.7312 C.3     1  UNL1        0.0521
      8 C         142.2698  142.6870  169.4336 C.ar    1  UNL1        0.0595
      9 C         143.0373  141.7446  168.5545 C.ar    1  UNL1        0.0162
     10 C         142.4457  141.2796  167.2568 C.ar    1  UNL1        0.0203
     11 C         141.0868  141.7570  166.8383 C.ar    1  UNL1        0.0842
     12 C         140.3193  142.6994  167.7174 C.ar    1  UNL1        0.1159
     13 N         140.9108  143.1644  169.0150 N.ar    1  UNL1       -0.2466
     14 C         141.7690  142.9552  163.8805 C.ar    1  UNL1        0.1261
     15 N         143.1536  142.6407  163.3964 N.ar    1  UNL1       -0.2399
     16 C         144.1138  143.7532  163.0958 C.ar    1  UNL1        0.0990
     17 C         143.6895  145.1802  163.2794 C.ar    1  UNL1        0.0215
     18 C         142.3051  145.4947  163.7635 C.ar    1  UNL1        0.0146
     19 C         141.3449  144.3822  164.0641 C.ar    1  UNL1        0.0783
     20 CL        139.9604  144.6968  164.5482 Cl      1  UNL1       -0.0806
     21 C         138.2173  139.0921  163.2964 C.3     1  UNL1        0.1163
     22 N         138.7366  137.9075  162.5367 N.3     1  UNL1       -0.2935
     23 H         138.0470  137.6946  161.8159 H       1  UNL1        0.1236
     24 C         140.0694  137.9808  161.8527 C.3     1  UNL1        0.0543
     25 C         140.3187  138.4718  160.4574 C.3     1  UNL1        0.0157
     26 C         141.7905  138.3705  160.1863 C.3     1  UNL1        0.0014
     27 C         142.4510  137.8168  161.4141 C.3     1  UNL1        0.0014
     28 C         141.3872  137.5760  162.4439 C.3     1  UNL1        0.0157
@<TRIPOS>BOND
     1     7     8    1
     2     8     9   ar
     3     9    10   ar
     4    10    11   ar
     5    11     1    1
     6     1     2   ar
     7     2    14    1
     8    14    15   ar
     9    15    16   ar
    10    16    17   ar
    11    17    18   ar
    12    18    19   ar
    13    19    20    1
    14     2     3   ar
    15     3     4   ar
    16     4    21    1
    17    21    22    1
    18    22    24    1
    19    24    25    1
    20    25    26    1
    21    26    27    1
    22    27    28    1
    23     4     5   ar
    24     5     6    1
    25    11    12   ar
    26    12    13   ar
    27    13     8   ar
    28     5     1   ar
    29    19    14   ar
    30    28    24    1
    31    22    23    1
@<TRIPOS>MOLECULE
*****
 28 31 0 0 0
SMALL
GASTEIGER

@<TRIPOS>ATOM
      1 N         141.5338  140.3514  167.1693 N.ar    1  UNL1       -0.2915
      2 C         142.6289  139.5305  166.5554 C.ar    1  UNL1        0.1658
      3 N         143.3351  138.8002  167.6591 N.ar    1  UNL1       -0.2282
      4 C         142.6765  139.1699  168.9551 C.ar    1  UNL1        0.0885
      5 C         141.5633  140.1286  168.6524 C.ar    1  UNL1        0.0580
      6 C         140.6413  140.7545  169.6565 C.3     1  UNL1        0.0517
      7 C         137.7076  143.9031  164.2119 C.3     1  UNL1        0.0521
      8 C         138.6642  143.0152  164.9513 C.ar    1  UNL1        0.0595
      9 C         138.4636  141.5287  164.9472 C.ar    1  UNL1        0.0162
     10 C         139.4202  140.6408  165.6865 C.ar    1  UNL1        0.0203
     11 C         140.5773  141.2394  166.4300 C.ar    1  UNL1        0.0842
     12 C         140.7778  142.7259  166.4341 C.ar    1  UNL1        0.1159
     13 N         139.8213  143.6138  165.6948 N.ar    1  UNL1       -0.2466
     14 C         142.9597  139.4533  165.0944 C.ar    1  UNL1        0.1261
     15 N         142.5529  138.2504  164.2958 N.ar    1  UNL1       -0.2399
     16 C         142.8836  138.1732  162.8348 C.ar    1  UNL1        0.0990
     17 C         143.6212  139.2988  162.1723 C.ar    1  UNL1        0.0215
     18 C         144.0280  140.5017  162.9708 C.ar    1  UNL1        0.0146
     19 C         143.6972  140.5789  164.4319 C.ar    1  UNL1        0.0783
     20 CL        144.1040  141.7818  165.2304 Cl      1  UNL1       -0.0806
     21 C         143.0633  138.6688  170.3150 C.3     1  UNL1        0.1163
     22 N         143.2150  137.1962  170.5565 N.3     1  UNL1       -0.2935
     23 H         143.2618  136.7508  169.6401 H       1  UNL1        0.1236
     24 C         144.3810  136.6823  171.3479 C.3     1  UNL1        0.0543
     25 C         144.6823  135.2422  171.6399 C.3     1  UNL1        0.0157
     26 C         145.9380  135.1881  172.4587 C.3     1  UNL1        0.0014
     27 C         146.4127  136.5949  172.6728 C.3     1  UNL1        0.0014
     28 C         145.4504  137.5183  171.9862 C.3     1  UNL1        0.0157
@<TRIPOS>BOND
     1     7     8    1
     2     8     9   ar
     3     9    10   ar
     4    10    11   ar
     5    11     1    1
     6     1     2   ar
     7     2    14    1
     8    14    15   ar
     9    15    16   ar
    10    16    17   ar
    11    17    18   ar
    12    18    19   ar
    13    19    20    1
    14     2     3   ar
    15     3     4   ar
    16     4    21    1
    17    21    22    1
    18    22    24    1
    19    24    25    1
    20    25    26    1
    21    26    27    1
    22    27    28    1
    23     4     5   ar
    24     5     6    1
    25    11    12   ar
    26    12    13   ar
    27    13     8   ar
    28     5     1   ar
    29    19    14   ar
    30    28    24    1
    31    22    23    1
@<TRIPOS>MOLECULE
*****
 28 31 0 0 0
SMALL
GASTEIGER

@<TRIPOS>ATOM
      1 N         141.6464  140.3459  165.5617 N.ar    1  UNL1       -0.2915
      2 C         140.9931  140.9899  164.3749 C.ar    1  UNL1        0.1658
      3 N         141.5011  140.3080  163.1392 N.ar    1  UNL1       -0.2282
      4 C         142.4684  139.2424  163.5623 C.ar    1  UNL1        0.0885
      5 C         142.5582  139.2659  165.0594 C.ar    1  UNL1        0.0580
      6 C         143.4102  138.3671  165.9057 C.3     1  UNL1        0.0517
      7 C         140.7671  141.8294  171.3085 C.3     1  UNL1        0.0521
      8 C         140.9869  141.4585  169.8718 C.ar    1  UNL1        0.0595
      9 C         140.0074  140.5657  169.1693 C.ar    1  UNL1        0.0162
     10 C         140.2273  140.1948  167.7326 C.ar    1  UNL1        0.0203
     11 C         141.4266  140.7168  166.9984 C.ar    1  UNL1        0.0842
     12 C         142.4060  141.6096  167.7008 C.ar    1  UNL1        0.1159
     13 N         142.1862  141.9805  169.1375 N.ar    1  UNL1       -0.2466
     14 C         140.0052  142.1179  164.4165 C.ar    1  UNL1        0.1261
     15 N         140.4857  143.5380  164.3664 N.ar    1  UNL1       -0.2399
     16 C         139.4978  144.6660  164.4080 C.ar    1  UNL1        0.0990
     17 C         138.0294  144.3739  164.4996 C.ar    1  UNL1        0.0215
     18 C         137.5489  142.9539  164.5497 C.ar    1  UNL1        0.0146
     19 C         138.5368  141.8259  164.5081 C.ar    1  UNL1        0.0783
     20 CL        138.0562  140.4058  164.5582 Cl      1  UNL1       -0.0806
     21 C         143.2148  138.3161  162.6487 C.3     1  UNL1        0.1163
     22 N         144.3266  138.8435  161.7909 N.3     1  UNL1       -0.2935
     23 H         144.2972  138.3199  160.9160 H       1  UNL1        0.1236
     24 C         144.3659  140.2974  161.4243 C.3     1  UNL1        0.0543
     25 C         144.9548  141.4001  162.2533 C.3     1  UNL1        0.0157
     26 C         144.7761  142.6882  161.5057 C.3     1  UNL1        0.0014
     27 C         144.0766  142.3816  160.2146 C.3     1  UNL1        0.0014
     28 C         143.8232  140.9040  160.1644 C.3     1  UNL1        0.0157
@<TRIPOS>BOND
     1     7     8    1
     2     8     9   ar
     3     9    10   ar
     4    10    11   ar
     5    11     1    1
     6     1     2   ar
     7     2    14    1
     8    14    15   ar
     9    15    16   ar
    10    16    17   ar
    11    17    18   ar
    12    18    19   ar
    13    19    20    1
    14     2     3   ar
    15     3     4   ar
    16     4    21    1
    17    21    22    1
    18    22    24    1
    19    24    25    1
    20    25    26    1
    21    26    27    1
    22    27    28    1
    23     4     5   ar
    24     5     6    1
    25    11    12   ar
    26    12    13   ar
    27    13     8   ar
    28     5     1   ar
    29    19    14   ar
    30    28    24    1
    31    22    23    1
@<TRIPOS>MOLECULE
*****
 28 31 0 0 0
SMALL
GASTEIGER

@<TRIPOS>ATOM
      1 N         141.9994  140.5230  165.5677 N.ar    1  UNL1       -0.2915
      2 C         141.3711  141.2002  164.3859 C.ar    1  UNL1        0.1658
      3 N         141.9119  140.5588  163.1425 N.ar    1  UNL1       -0.2282
      4 C         142.8745  139.4852  163.5557 C.ar    1  UNL1        0.0885
      5 C         142.9285  139.4631  165.0546 C.ar    1  UNL1        0.0580
      6 C         143.7649  138.5426  165.8932 C.3     1  UNL1        0.0517
      7 C         140.9756  141.8250  171.3346 C.3     1  UNL1        0.0521
      8 C         141.2316  141.4995  169.8928 C.ar    1  UNL1        0.0595
      9 C         142.2678  142.2642  169.1238 C.ar    1  UNL1        0.0162
     10 C         142.5238  141.9386  167.6821 C.ar    1  UNL1        0.0203
     11 C         141.7434  140.8485  167.0094 C.ar    1  UNL1        0.0842
     12 C         140.7072  140.0838  167.7784 C.ar    1  UNL1        0.1159
     13 N         140.4512  140.4094  169.2201 N.ar    1  UNL1       -0.2466
     14 C         140.3766  142.3219  164.4383 C.ar    1  UNL1        0.1261
     15 N         140.8392  143.7417  164.2966 N.ar    1  UNL1       -0.2399
     16 C         139.8447  144.8634  164.3490 C.ar    1  UNL1        0.0990
     17 C         138.3875  144.5653  164.5432 C.ar    1  UNL1        0.0215
     18 C         137.9249  143.1455  164.6849 C.ar    1  UNL1        0.0146
     19 C         138.9194  142.0238  164.6325 C.ar    1  UNL1        0.0783
     20 CL        138.4566  140.6040  164.7743 Cl      1  UNL1       -0.0806
     21 C         143.6473  138.5908  162.6323 C.3     1  UNL1        0.1163
     22 N         142.9206  137.6627  161.7047 N.3     1  UNL1       -0.2935
     23 H         142.9643  136.7338  162.1237 H       1  UNL1        0.1236
     24 C         141.4820  137.9170  161.3646 C.3     1  UNL1        0.0543
     25 C         140.9694  138.5030  160.0825 C.3     1  UNL1        0.0157
     26 C         139.4740  138.5782  160.1724 C.3     1  UNL1        0.0014
     27 C         139.0623  138.0387  161.5102 C.3     1  UNL1        0.0014
     28 C         140.3034  137.6301  162.2470 C.3     1  UNL1        0.0157
@<TRIPOS>BOND
     1     7     8    1
     2     8     9   ar
     3     9    10   ar
     4    10    11   ar
     5    11     1    1
     6     1     2   ar
     7     2    14    1
     8    14    15   ar
     9    15    16   ar
    10    16    17   ar
    11    17    18   ar
    12    18    19   ar
    13    19    20    1
    14     2     3   ar
    15     3     4   ar
    16     4    21    1
    17    21    22    1
    18    22    24    1
    19    24    25    1
    20    25    26    1
    21    26    27    1
    22    27    28    1
    23     4     5   ar
    24     5     6    1
    25    11    12   ar
    26    12    13   ar
    27    13     8   ar
    28     5     1   ar
    29    19    14   ar
    30    28    24    1
    31    22    23    1
