@<TRIPOS>MOLECULE
*****
 29 29 0 0 0
SMALL
GASTEIGER

@<TRIPOS>ATOM
      1 C         140.6569  141.8341  167.9432 C.3     1  UNL1        0.1035
      2 C         140.2888  142.8537  168.9801 C.3     1  UNL1        0.1002
      3 C         141.5485  143.2936  169.6654 C.3     1  UNL1        0.3324
      4 F         142.6152  143.9171  170.5160 F       1  UNL1       -0.1945
      5 F         140.6249  144.1716  170.4566 F       1  UNL1       -0.1945
      6 C         142.6952  142.5460  169.0520 C.2     1  UNL1        0.2871
      7 O         144.1394  142.6773  169.4356 O.2     1  UNL1       -0.2690
      8 N         142.1441  141.6440  167.9877 N.am    1  UNL1       -0.2728
      9 C         139.3765  139.6826  167.2493 C.2     1  UNL1       -0.0004
     10 C         139.7049  141.1287  167.0234 C.2     1  UNL1       -0.0087
     11 C         138.4246  138.9771  166.3295 C.3     1  UNL1        0.1331
     12 O         137.1929  138.3235  166.8825 O.3     1  UNL1       -0.3800
     13 H         136.6908  137.9161  166.1595 H       1  UNL1        0.2108
     14 C         138.7043  138.9253  164.8567 C.3     1  UNL1        0.0441
     15 C         139.7769  138.0195  164.3285 C.3     1  UNL1        0.0039
     16 C         137.9114  139.7791  163.9122 C.3     1  UNL1        0.0788
     17 C         138.0106  142.7682  164.1488 C.1     1  UNL1       -0.0911
     18 C         137.9610  141.2737  164.0305 C.1     1  UNL1       -0.0910
     19 C         138.5354  144.8989  165.5397 C.3     1  UNL1        0.0150
     20 C         138.0602  144.2626  164.2671 C.3     1  UNL1        0.0761
     21 C         142.9405  140.7150  167.1201 C.3     1  UNL1        0.0938
     22 C         143.4064  141.1663  165.7676 C.3     1  UNL1        0.0215
     23 C         142.5257  140.9746  164.5686 C.3     1  UNL1        0.0018
     24 C         141.6460  142.0945  164.0975 C.3     1  UNL1        0.0004
     25 C         141.8590  143.4852  164.6176 C.3     1  UNL1        0.0059
     26 C         141.8853  144.6455  163.6674 C.3     1  UNL1        0.0417
     27 C         142.7935  144.6172  162.4740 C.2     1  UNL1        0.0503
     28 O         144.2810  144.6631  162.6623 O.co2   1  UNL1       -0.5492
     29 O         142.2144  144.5429  161.0923 O.co2   1  UNL1       -0.5492
@<TRIPOS>UNITY_ATOM_ATTR
28 1
charge -1
@<TRIPOS>BOND
     1    19    20    1
     2    20    17    1
     3    17    18    3
     4    18    16    1
     5    16    14    1
     6    14    15    1
     7    14    11    1
     8    11    12    1
     9    11     9    1
    10     9    10    2
    11     1    10    1
    12     1     2    1
    13     2     3    1
    14     3     4    1
    15     3     5    1
    16     3     6    1
    17     6     7    2
    18     6     8   am
    19     8    21    1
    20    21    22    1
    21    22    23    1
    22    23    24    1
    23    24    25    1
    24    25    26    1
    25    26    27    1
    26    27    28   ar
    27    27    29   ar
    28     8     1    1
    29    12    13    1
@<TRIPOS>MOLECULE
*****
 29 29 0 0 0
SMALL
GASTEIGER

@<TRIPOS>ATOM
      1 C         142.3811  141.7386  166.9886 C.3     1  UNL1        0.1035
      2 C         143.0752  142.4034  168.1402 C.3     1  UNL1        0.1002
      3 C         143.3208  141.3656  169.1951 C.3     1  UNL1        0.3324
      4 F         143.6961  140.5658  170.4073 F       1  UNL1       -0.1945
      5 F         143.9416  142.5045  169.9482 F       1  UNL1       -0.1945
      6 C         142.7784  140.0594  168.6954 C.2     1  UNL1        0.2871
      7 O         142.8110  138.7521  169.4302 O.2     1  UNL1       -0.2690
      8 N         142.1976  140.2900  167.3317 N.am    1  UNL1       -0.2728
      9 C         140.5605  142.9666  165.6002 C.2     1  UNL1       -0.0004
     10 C         141.9466  142.4054  165.7171 C.2     1  UNL1       -0.0087
     11 C         140.1261  143.6334  164.3287 C.3     1  UNL1        0.1331
     12 O         141.1136  144.4204  163.5193 O.3     1  UNL1       -0.3800
     13 H         140.6730  144.7825  162.7346 H       1  UNL1        0.2108
     14 C         138.7040  143.5131  163.8667 C.3     1  UNL1        0.0441
     15 C         138.1294  144.5375  162.9338 C.3     1  UNL1        0.0039
     16 C         137.8567  142.3684  164.3376 C.3     1  UNL1        0.0788
     17 C         138.1746  139.6564  163.0951 C.1     1  UNL1       -0.0911
     18 C         138.0157  141.0123  163.7164 C.1     1  UNL1       -0.0910
     19 C         139.5116  138.0133  161.5909 C.3     1  UNL1        0.0150
     20 C         138.3335  138.3004  162.4739 C.3     1  UNL1        0.0761
     21 C         141.5475  139.2537  166.4636 C.3     1  UNL1        0.0938
     22 C         140.0631  139.2788  166.2493 C.3     1  UNL1        0.0215
     23 C         139.1919  140.1210  167.1335 C.3     1  UNL1        0.0018
     24 C         138.8601  139.6571  168.5208 C.3     1  UNL1        0.0004
     25 C         139.2233  140.5063  169.7026 C.3     1  UNL1        0.0059
     26 C         139.7589  141.8919  169.4943 C.3     1  UNL1        0.0417
     27 C         139.9904  142.7915  170.6721 C.2     1  UNL1        0.0503
     28 O         140.4339  142.2121  171.9826 O.co2   1  UNL1       -0.5492
     29 O         139.7784  144.2704  170.5392 O.co2   1  UNL1       -0.5492
@<TRIPOS>UNITY_ATOM_ATTR
28 1
charge -1
@<TRIPOS>BOND
     1    19    20    1
     2    20    17    1
     3    17    18    3
     4    18    16    1
     5    16    14    1
     6    14    15    1
     7    14    11    1
     8    11    12    1
     9    11     9    1
    10     9    10    2
    11     1    10    1
    12     1     2    1
    13     2     3    1
    14     3     4    1
    15     3     5    1
    16     3     6    1
    17     6     7    2
    18     6     8   am
    19     8    21    1
    20    21    22    1
    21    22    23    1
    22    23    24    1
    23    24    25    1
    24    25    26    1
    25    26    27    1
    26    27    28   ar
    27    27    29   ar
    28     8     1    1
    29    12    13    1
@<TRIPOS>MOLECULE
*****
 29 29 0 0 0
SMALL
GASTEIGER

@<TRIPOS>ATOM
      1 C         139.8532  139.2419  165.7448 C.3     1  UNL1        0.1035
      2 C         138.5074  138.6670  166.0739 C.3     1  UNL1        0.1002
      3 C         138.1844  139.0266  167.4939 C.3     1  UNL1        0.3324
      4 F         137.5961  139.2283  168.8589 F       1  UNL1       -0.1945
      5 F         136.9153  138.2716  167.2308 F       1  UNL1       -0.1945
      6 C         139.3306  139.8237  168.0424 C.2     1  UNL1        0.2871
      7 O         139.4284  140.3885  169.4285 O.2     1  UNL1       -0.2690
      8 N         140.3620  139.9567  166.9614 N.am    1  UNL1       -0.2728
      9 C         141.7234  138.1804  164.2868 C.2     1  UNL1       -0.0004
     10 C         140.5653  139.1228  164.4299 C.2     1  UNL1       -0.0087
     11 C         142.4354  138.0613  162.9719 C.3     1  UNL1        0.1331
     12 O         141.9228  137.1183  161.9241 O.3     1  UNL1       -0.3800
     13 H         142.4940  137.1631  161.1414 H       1  UNL1        0.2108
     14 C         143.6600  138.8854  162.7048 C.3     1  UNL1        0.0441
     15 C         144.0360  139.2350  161.2955 C.3     1  UNL1        0.0039
     16 C         144.5086  139.3597  163.8471 C.3     1  UNL1        0.0788
     17 C         144.4551  142.2478  164.6573 C.1     1  UNL1       -0.0911
     18 C         144.4818  140.8038  164.2522 C.1     1  UNL1       -0.0910
     19 C         143.7611  144.7058  164.1812 C.3     1  UNL1        0.0150
     20 C         144.4284  143.6918  165.0624 C.3     1  UNL1        0.0761
     21 C         141.6721  140.6780  167.0767 C.3     1  UNL1        0.0938
     22 C         141.7125  142.1758  167.0056 C.3     1  UNL1        0.0215
     23 C         140.4751  142.9431  166.6445 C.3     1  UNL1        0.0018
     24 C         140.0607  143.0648  165.2080 C.3     1  UNL1        0.0004
     25 C         138.6940  142.6174  164.7813 C.3     1  UNL1        0.0059
     26 C         137.7708  143.5790  164.0935 C.3     1  UNL1        0.0417
     27 C         138.0058  143.9484  162.6588 C.2     1  UNL1        0.0503
     28 O         137.6355  142.9888  161.5669 O.co2   1  UNL1       -0.5492
     29 O         138.6111  145.2773  162.3159 O.co2   1  UNL1       -0.5492
@<TRIPOS>UNITY_ATOM_ATTR
28 1
charge -1
@<TRIPOS>BOND
     1    19    20    1
     2    20    17    1
     3    17    18    3
     4    18    16    1
     5    16    14    1
     6    14    15    1
     7    14    11    1
     8    11    12    1
     9    11     9    1
    10     9    10    2
    11     1    10    1
    12     1     2    1
    13     2     3    1
    14     3     4    1
    15     3     5    1
    16     3     6    1
    17     6     7    2
    18     6     8   am
    19     8    21    1
    20    21    22    1
    21    22    23    1
    22    23    24    1
    23    24    25    1
    24    25    26    1
    25    26    27    1
    26    27    28   ar
    27    27    29   ar
    28     8     1    1
    29    12    13    1
@<TRIPOS>MOLECULE
*****
 29 29 0 0 0
SMALL
GASTEIGER

@<TRIPOS>ATOM
      1 C         142.4226  141.4063  164.1230 C.3     1  UNL1        0.1035
      2 C         143.8943  141.4265  163.8337 C.3     1  UNL1        0.1002
      3 C         144.5014  140.1921  164.4317 C.3     1  UNL1        0.3324
      4 F         145.3760  139.0725  164.9131 F       1  UNL1       -0.1945
      5 F         145.7808  140.7413  163.8734 F       1  UNL1       -0.1945
      6 C         143.4049  139.4089  165.0907 C.2     1  UNL1        0.2871
      7 O         143.5650  138.1044  165.8136 O.2     1  UNL1       -0.2690
      8 N         142.1202  140.1593  164.8999 N.am    1  UNL1       -0.2728
      9 C         141.5492  143.8508  164.2301 C.2     1  UNL1       -0.0004
     10 C         141.4281  142.4497  163.7083 C.2     1  UNL1       -0.0087
     11 C         140.5546  144.8942  163.8154 C.3     1  UNL1        0.1331
     12 O         141.0090  146.1008  163.0489 O.3     1  UNL1       -0.3800
     13 H         140.2468  146.6708  162.8615 H       1  UNL1        0.2108
     14 C         139.1056  144.7310  164.1672 C.3     1  UNL1        0.0441
     15 C         138.6497  144.9343  165.5817 C.3     1  UNL1        0.0039
     16 C         138.1125  144.3645  163.1045 C.3     1  UNL1        0.0788
     17 C         137.7855  141.4983  162.2811 C.1     1  UNL1       -0.0911
     18 C         137.9490  142.9314  162.6928 C.1     1  UNL1       -0.0910
     19 C         138.3409  138.9828  162.6189 C.3     1  UNL1        0.0150
     20 C         137.6220  140.0652  161.8694 C.3     1  UNL1        0.0761
     21 C         140.7700  139.7368  165.3985 C.3     1  UNL1        0.0938
     22 C         140.2878  140.1998  166.7413 C.3     1  UNL1        0.0215
     23 C         139.9595  141.6466  166.9624 C.3     1  UNL1        0.0018
     24 C         140.8990  142.5182  167.7420 C.3     1  UNL1        0.0004
     25 C         142.3694  142.2216  167.7448 C.3     1  UNL1        0.0059
     26 C         143.0310  141.7202  168.9941 C.3     1  UNL1        0.0417
     27 C         143.5564  142.6937  170.0071 C.2     1  UNL1        0.0503
     28 O         142.6161  143.3523  170.9725 O.co2   1  UNL1       -0.5492
     29 O         145.0222  143.0087  170.0547 O.co2   1  UNL1       -0.5492
@<TRIPOS>UNITY_ATOM_ATTR
28 1
charge -1
@<TRIPOS>BOND
     1    19    20    1
     2    20    17    1
     3    17    18    3
     4    18    16    1
     5    16    14    1
     6    14    15    1
     7    14    11    1
     8    11    12    1
     9    11     9    1
    10     9    10    2
    11     1    10    1
    12     1     2    1
    13     2     3    1
    14     3     4    1
    15     3     5    1
    16     3     6    1
    17     6     7    2
    18     6     8   am
    19     8    21    1
    20    21    22    1
    21    22    23    1
    22    23    24    1
    23    24    25    1
    24    25    26    1
    25    26    27    1
    26    27    28   ar
    27    27    29   ar
    28     8     1    1
    29    12    13    1
@<TRIPOS>MOLECULE
*****
 29 29 0 0 0
SMALL
GASTEIGER

@<TRIPOS>ATOM
      1 C         141.6202  142.3441  164.3170 C.3     1  UNL1        0.1035
      2 C         141.5291  143.8193  164.0610 C.3     1  UNL1        0.1002
      3 C         142.8609  144.4290  164.3842 C.3     1  UNL1        0.3324
      4 F         144.0537  145.3068  164.6226 F       1  UNL1       -0.1945
      5 F         142.1960  145.7109  163.9782 F       1  UNL1       -0.1945
      6 C         143.7752  143.3307  164.8400 C.2     1  UNL1        0.2871
      7 O         145.2051  143.4925  165.2631 O.2     1  UNL1       -0.2690
      8 N         143.0084  142.0422  164.7985 N.am    1  UNL1       -0.2728
      9 C         139.4789  141.1614  165.1922 C.2     1  UNL1       -0.0004
     10 C         140.5169  141.3461  164.1253 C.2     1  UNL1       -0.0087
     11 C         138.3756  140.1634  165.0004 C.3     1  UNL1        0.1331
     12 O         137.2765  140.4399  164.0178 O.3     1  UNL1       -0.3800
     13 H         136.6498  139.6996  164.0169 H       1  UNL1        0.2108
     14 C         138.3714  138.8888  165.7913 C.3     1  UNL1        0.0441
     15 C         137.8180  138.8730  167.1853 C.3     1  UNL1        0.0039
     16 C         138.9207  137.6301  165.1881 C.3     1  UNL1        0.0788
     17 C         141.0006  137.7836  163.0315 C.1     1  UNL1       -0.0911
     18 C         139.9607  137.7068  164.1098 C.1     1  UNL1       -0.0910
     19 C         143.4453  138.2615  162.2932 C.3     1  UNL1        0.0150
     20 C         142.0404  137.8603  161.9532 C.3     1  UNL1        0.0761
     21 C         143.5370  140.6892  165.1728 C.3     1  UNL1        0.0938
     22 C         142.6443  139.6990  165.8601 C.3     1  UNL1        0.0215
     23 C         142.5560  139.6819  167.3575 C.3     1  UNL1        0.0018
     24 C         141.7046  140.6904  168.0701 C.3     1  UNL1        0.0004
     25 C         140.7330  140.2427  169.1215 C.3     1  UNL1        0.0059
     26 C         139.6733  141.1837  169.6130 C.3     1  UNL1        0.0417
     27 C         140.0504  142.3581  170.4665 C.2     1  UNL1        0.0503
     28 O         139.9693  143.7479  169.9081 O.co2   1  UNL1       -0.5492
     29 O         140.5087  142.1427  171.8785 O.co2   1  UNL1       -0.5492
@<TRIPOS>UNITY_ATOM_ATTR
28 1
charge -1
@<TRIPOS>BOND
     1    19    20    1
     2    20    17    1
     3    17    18    3
     4    18    16    1
     5    16    14    1
     6    14    15    1
     7    14    11    1
     8    11    12    1
     9    11     9    1
    10     9    10    2
    11     1    10    1
    12     1     2    1
    13     2     3    1
    14     3     4    1
    15     3     5    1
    16     3     6    1
    17     6     7    2
    18     6     8   am
    19     8    21    1
    20    21    22    1
    21    22    23    1
    22    23    24    1
    23    24    25    1
    24    25    26    1
    25    26    27    1
    26    27    28   ar
    27    27    29   ar
    28     8     1    1
    29    12    13    1
@<TRIPOS>MOLECULE
*****
 29 29 0 0 0
SMALL
GASTEIGER

@<TRIPOS>ATOM
      1 C         141.8730  139.4322  164.6296 C.3     1  UNL1        0.1035
      2 C         141.6521  138.5796  163.4154 C.3     1  UNL1        0.1002
      3 C         140.3409  137.8698  163.5796 C.3     1  UNL1        0.3324
      4 F         139.0987  137.0370  163.4637 F       1  UNL1       -0.1945
      5 F         140.6707  137.2818  162.2396 F       1  UNL1       -0.1945
      6 C         139.7514  138.2837  164.8953 C.2     1  UNL1        0.2871
      7 O         138.4445  137.8144  165.4626 O.2     1  UNL1       -0.2690
      8 N         140.6983  139.2493  165.5442 N.am    1  UNL1       -0.2728
      9 C         143.4926  141.3072  163.8478 C.2     1  UNL1       -0.0004
     10 C         143.0601  140.3130  164.8844 C.2     1  UNL1       -0.0087
     11 C         144.6797  142.1880  164.1027 C.3     1  UNL1        0.1331
     12 O         146.0631  141.6831  163.8180 O.3     1  UNL1       -0.3800
     13 H         146.7101  142.3721  164.0363 H       1  UNL1        0.2108
     14 C         144.4833  143.5739  164.6421 C.3     1  UNL1        0.0441
     15 C         145.0441  143.9430  165.9834 C.3     1  UNL1        0.0039
     16 C         143.7261  144.5905  163.8402 C.3     1  UNL1        0.0788
     17 C         140.7385  144.7522  164.0605 C.1     1  UNL1       -0.0911
     18 C         142.2322  144.6714  163.9504 C.1     1  UNL1       -0.0910
     19 C         138.5947  144.8966  165.5211 C.3     1  UNL1        0.0150
     20 C         139.2448  144.8330  164.1707 C.3     1  UNL1        0.0761
     21 C         140.5044  139.9151  166.8743 C.3     1  UNL1        0.0938
     22 C         139.9776  141.3179  166.9411 C.3     1  UNL1        0.0215
     23 C         140.9293  142.4716  167.0573 C.3     1  UNL1        0.0018
     24 C         142.2573  142.2836  167.7289 C.3     1  UNL1        0.0004
     25 C         142.3437  142.2595  169.2263 C.3     1  UNL1        0.0059
     26 C         141.4781  143.1732  170.0423 C.3     1  UNL1        0.0417
     27 C         140.4540  142.6000  170.9764 C.2     1  UNL1        0.0503
     28 O         140.7340  141.3162  171.7000 O.co2   1  UNL1       -0.5492
     29 O         139.1499  143.3105  171.1870 O.co2   1  UNL1       -0.5492
@<TRIPOS>UNITY_ATOM_ATTR
28 1
charge -1
@<TRIPOS>BOND
     1    19    20    1
     2    20    17    1
     3    17    18    3
     4    18    16    1
     5    16    14    1
     6    14    15    1
     7    14    11    1
     8    11    12    1
     9    11     9    1
    10     9    10    2
    11     1    10    1
    12     1     2    1
    13     2     3    1
    14     3     4    1
    15     3     5    1
    16     3     6    1
    17     6     7    2
    18     6     8   am
    19     8    21    1
    20    21    22    1
    21    22    23    1
    22    23    24    1
    23    24    25    1
    24    25    26    1
    25    26    27    1
    26    27    28   ar
    27    27    29   ar
    28     8     1    1
    29    12    13    1
@<TRIPOS>MOLECULE
*****
 29 29 0 0 0
SMALL
GASTEIGER

@<TRIPOS>ATOM
      1 C         140.4037  143.4728  164.9502 C.3     1  UNL1        0.1035
      2 C         141.0382  144.6140  164.2121 C.3     1  UNL1        0.1002
      3 C         140.1019  145.0371  163.1192 C.3     1  UNL1        0.3324
      4 F         139.3880  145.6718  161.9627 F       1  UNL1       -0.1945
      5 F         141.1659  146.0496  162.8147 F       1  UNL1       -0.1945
      6 C         138.8887  144.1573  163.1819 C.2     1  UNL1        0.2871
      7 O         137.6980  144.2313  162.2727 O.2     1  UNL1       -0.2690
      8 N         139.0752  143.1905  164.3135 N.am    1  UNL1       -0.2728
      9 C         140.4157  142.9300  167.4909 C.2     1  UNL1       -0.0004
     10 C         140.9940  142.7421  166.1197 C.2     1  UNL1       -0.0087
     11 C         141.0060  142.1993  168.6604 C.3     1  UNL1        0.1331
     12 O         141.8732  142.9307  169.6417 O.3     1  UNL1       -0.3800
     13 H         142.1704  142.3165  170.3311 H       1  UNL1        0.2108
     14 C         140.7291  140.7371  168.8485 C.3     1  UNL1        0.0441
     15 C         139.3431  140.2737  169.1867 C.3     1  UNL1        0.0039
     16 C         141.8381  139.7383  168.6986 C.3     1  UNL1        0.0788
     17 C         143.0455  139.2315  165.9994 C.1     1  UNL1       -0.0911
     18 C         142.4419  139.4849  167.3490 C.1     1  UNL1       -0.0910
     19 C         145.0215  139.4944  164.3331 C.3     1  UNL1        0.0150
     20 C         143.6492  138.9782  164.6498 C.3     1  UNL1        0.0761
     21 C         138.1037  142.1280  164.7345 C.3     1  UNL1        0.0938
     22 C         138.4281  140.6816  164.5051 C.3     1  UNL1        0.0215
     23 C         138.1457  139.6705  165.5766 C.3     1  UNL1        0.0018
     24 C         139.1618  138.6151  165.8983 C.3     1  UNL1        0.0004
     25 C         139.8139  137.8397  164.7921 C.3     1  UNL1        0.0059
     26 C         139.0259  137.4679  163.5711 C.3     1  UNL1        0.0417
     27 C         139.5238  137.8553  162.2103 C.2     1  UNL1        0.0503
     28 O         138.6186  138.5798  161.2586 O.co2   1  UNL1       -0.5492
     29 O         140.9270  137.5183  161.8011 O.co2   1  UNL1       -0.5492
@<TRIPOS>UNITY_ATOM_ATTR
28 1
charge -1
@<TRIPOS>BOND
     1    19    20    1
     2    20    17    1
     3    17    18    3
     4    18    16    1
     5    16    14    1
     6    14    15    1
     7    14    11    1
     8    11    12    1
     9    11     9    1
    10     9    10    2
    11     1    10    1
    12     1     2    1
    13     2     3    1
    14     3     4    1
    15     3     5    1
    16     3     6    1
    17     6     7    2
    18     6     8   am
    19     8    21    1
    20    21    22    1
    21    22    23    1
    22    23    24    1
    23    24    25    1
    24    25    26    1
    25    26    27    1
    26    27    28   ar
    27    27    29   ar
    28     8     1    1
    29    12    13    1
@<TRIPOS>MOLECULE
*****
 29 29 0 0 0
SMALL
GASTEIGER

@<TRIPOS>ATOM
      1 C         139.4501  142.1384  163.9158 C.3     1  UNL1        0.1035
      2 C         138.4816  143.1014  163.2955 C.3     1  UNL1        0.1002
      3 C         139.1419  144.4468  163.2323 C.3     1  UNL1        0.3324
      4 F         139.5314  145.8824  163.0391 F       1  UNL1       -0.1945
      5 F         137.8468  144.8784  162.6106 F       1  UNL1       -0.1945
      6 C         140.5184  144.3154  163.8136 C.2     1  UNL1        0.2871
      7 O         141.5274  145.4171  163.9487 O.2     1  UNL1       -0.2690
      8 N         140.7089  142.8887  164.2360 N.am    1  UNL1       -0.2728
      9 C         139.1369  139.7191  163.0222 C.2     1  UNL1       -0.0004
     10 C         139.2031  140.6811  164.1711 C.2     1  UNL1       -0.0087
     11 C         138.8899  138.2618  163.2775 C.3     1  UNL1        0.1331
     12 O         138.1617  137.4349  162.2598 O.3     1  UNL1       -0.3800
     13 H         138.0872  136.5218  162.5784 H       1  UNL1        0.2108
     14 C         139.3712  137.6313  164.5507 C.3     1  UNL1        0.0441
     15 C         138.4976  137.6422  165.7700 C.3     1  UNL1        0.0039
     16 C         140.7261  136.9899  164.6046 C.3     1  UNL1        0.0788
     17 C         143.1947  138.6945  164.5826 C.1     1  UNL1       -0.0911
     18 C         141.9604  137.8422  164.5936 C.1     1  UNL1       -0.0910
     19 C         144.7666  140.3621  163.3585 C.3     1  UNL1        0.0150
     20 C         144.4289  139.5468  164.5715 C.3     1  UNL1        0.0761
     21 C         141.9417  142.3134  164.8678 C.3     1  UNL1        0.0938
     22 C         142.1778  142.4800  166.3397 C.3     1  UNL1        0.0215
     23 C         142.8566  141.3923  167.1182 C.3     1  UNL1        0.0018
     24 C         142.0710  140.5644  168.0915 C.3     1  UNL1        0.0004
     25 C         140.8064  139.8882  167.6513 C.3     1  UNL1        0.0059
     26 C         139.4971  140.2643  168.2791 C.3     1  UNL1        0.0417
     27 C         139.4478  140.6793  169.7198 C.2     1  UNL1        0.0503
     28 O         139.2258  139.6512  170.7892 O.co2   1  UNL1       -0.5492
     29 O         139.6205  142.1223  170.0910 O.co2   1  UNL1       -0.5492
@<TRIPOS>UNITY_ATOM_ATTR
28 1
charge -1
@<TRIPOS>BOND
     1    19    20    1
     2    20    17    1
     3    17    18    3
     4    18    16    1
     5    16    14    1
     6    14    15    1
     7    14    11    1
     8    11    12    1
     9    11     9    1
    10     9    10    2
    11     1    10    1
    12     1     2    1
    13     2     3    1
    14     3     4    1
    15     3     5    1
    16     3     6    1
    17     6     7    2
    18     6     8   am
    19     8    21    1
    20    21    22    1
    21    22    23    1
    22    23    24    1
    23    24    25    1
    24    25    26    1
    25    26    27    1
    26    27    28   ar
    27    27    29   ar
    28     8     1    1
    29    12    13    1
@<TRIPOS>MOLECULE
*****
 29 29 0 0 0
SMALL
GASTEIGER

@<TRIPOS>ATOM
      1 C         143.0387  141.2309  166.3458 C.3     1  UNL1        0.1035
      2 C         142.8836  142.1843  167.4934 C.3     1  UNL1        0.1002
      3 C         142.7223  141.3776  168.7477 C.3     1  UNL1        0.3324
      4 F         142.5415  140.8515  170.1407 F       1  UNL1       -0.1945
      5 F         142.6291  142.7196  169.4114 F       1  UNL1       -0.1945
      6 C         142.7777  139.9256  168.3753 C.2     1  UNL1        0.2871
      7 O         142.6584  138.7676  169.3212 O.2     1  UNL1       -0.2690
      8 N         142.9732  139.8350  166.8909 N.am    1  UNL1       -0.2728
      9 C         144.5266  142.1992  164.4488 C.2     1  UNL1       -0.0004
     10 C         143.2264  141.6074  164.9060 C.2     1  UNL1       -0.0087
     11 C         144.7143  142.5756  163.0090 C.3     1  UNL1        0.1331
     12 O         145.9139  142.0830  162.2552 O.3     1  UNL1       -0.3800
     13 H         145.8823  142.4153  161.3444 H       1  UNL1        0.2108
     14 C         143.7022  143.4446  162.3230 C.3     1  UNL1        0.0441
     15 C         143.1904  143.0700  160.9636 C.3     1  UNL1        0.0039
     16 C         143.2019  144.6881  162.9963 C.3     1  UNL1        0.0788
     17 C         140.4922  144.7104  164.2835 C.1     1  UNL1       -0.0911
     18 C         141.8470  144.6993  163.6399 C.1     1  UNL1       -0.0910
     19 C         137.9603  144.1324  164.2075 C.3     1  UNL1        0.0150
     20 C         139.1374  144.7216  164.9270 C.3     1  UNL1        0.0761
     21 C         143.0838  138.5704  166.0918 C.3     1  UNL1        0.0938
     22 C         142.3410  138.4347  164.7958 C.3     1  UNL1        0.0215
     23 C         141.2378  137.4267  164.6656 C.3     1  UNL1        0.0018
     24 C         139.8273  137.8836  164.4386 C.3     1  UNL1        0.0004
     25 C         138.7961  137.6959  165.5118 C.3     1  UNL1        0.0059
     26 C         138.1806  138.8907  166.1777 C.3     1  UNL1        0.0417
     27 C         139.0395  139.8371  166.9629 C.2     1  UNL1        0.0503
     28 O         139.3195  139.5696  168.4120 O.co2   1  UNL1       -0.5492
     29 O         139.6185  141.0512  166.2989 O.co2   1  UNL1       -0.5492
@<TRIPOS>UNITY_ATOM_ATTR
28 1
charge -1
@<TRIPOS>BOND
     1    19    20    1
     2    20    17    1
     3    17    18    3
     4    18    16    1
     5    16    14    1
     6    14    15    1
     7    14    11    1
     8    11    12    1
     9    11     9    1
    10     9    10    2
    11     1    10    1
    12     1     2    1
    13     2     3    1
    14     3     4    1
    15     3     5    1
    16     3     6    1
    17     6     7    2
    18     6     8   am
    19     8    21    1
    20    21    22    1
    21    22    23    1
    22    23    24    1
    23    24    25    1
    24    25    26    1
    25    26    27    1
    26    27    28   ar
    27    27    29   ar
    28     8     1    1
    29    12    13    1
