@<TRIPOS>MOLECULE
*****
 34 37 0 0 0
SMALL
GASTEIGER

@<TRIPOS>ATOM
      1 N         143.3840  138.3556  161.9444 N.am    1  UNL1       -0.2987
      2 C         142.9007  139.3085  160.8915 C.2     1  UNL1        0.2472
      3 O         142.4089  140.6707  161.2817 O.2     1  UNL1       -0.2701
      4 H         143.7068  137.4615  161.6884 H       1  UNL1        0.1500
      5 C         142.9092  138.8990  159.4485 C.ar    1  UNL1        0.0690
      6 C         142.2957  137.6530  158.8819 C.ar    1  UNL1        0.0275
      7 C         142.5401  137.6477  157.4020 C.ar    1  UNL1        0.1142
      8 N         143.3047  138.8904  157.0539 N.ar    1  UNL1       -0.3223
      9 C         143.5328  139.6638  158.3187 C.ar    1  UNL1        0.0717
     10 C         144.2788  140.9644  158.2783 C.3     1  UNL1        0.1857
     11 O         144.7967  141.4917  156.9731 O.3     1  UNL1       -0.3454
     12 C         144.5686  140.7183  155.7082 C.3     1  UNL1        0.1671
     13 C         143.8226  139.4176  155.7487 C.3     1  UNL1        0.1379
     14 C         142.0977  136.5860  156.4392 C.2     1  UNL1        0.2649
     15 O         141.1633  136.9324  155.3181 O.2     1  UNL1       -0.2683
     16 N         142.5898  135.1778  156.5973 N.am    1  UNL1       -0.2765
     17 C         143.5221  134.6842  157.6637 C.3     1  UNL1        0.0937
     18 C         143.7444  133.2174  157.4423 C.3     1  UNL1        0.0232
     19 C         142.9495  132.8044  156.2392 C.3     1  UNL1        0.0216
     20 C         142.2359  134.0160  155.7170 C.3     1  UNL1        0.0758
     21 C         141.3278  134.0584  154.5239 C.3     1  UNL1        0.0215
     22 C         143.3755  138.7651  163.3874 C.3     1  UNL1        0.0943
     23 C         142.1039  138.6935  164.1798 C.ar    1  UNL1       -0.0045
     24 C         141.7998  139.7440  165.2065 C.ar    1  UNL1       -0.0027
     25 C         140.5282  139.6725  165.9989 C.ar    1  UNL1        0.0036
     26 C         139.5607  138.5504  165.7646 C.ar    1  UNL1        0.0714
     27 C         139.8648  137.4999  164.7380 C.ar    1  UNL1        0.0036
     28 C         141.1364  137.5714  163.9456 C.ar    1  UNL1       -0.0027
     29 C         138.2891  138.4788  166.5570 C.3     1  UNL1        0.4186
     30 F         137.0175  138.4073  167.3494 F       1  UNL1       -0.1659
     31 F         138.5235  139.8727  167.0592 F       1  UNL1       -0.1659
     32 F         138.0546  137.0850  166.0549 F       1  UNL1       -0.1659
     33 C         145.1831  140.6037  163.7059 C.3     1  UNL1        0.0021
     34 C         144.6385  139.2461  164.0380 C.3     1  UNL1        0.0241
@<TRIPOS>BOND
     1    33    34    1
     2    22    34    1
     3    22     1    1
     4     1     2   am
     5     2     3    2
     6     2     5    1
     7     5     6   ar
     8     6     7   ar
     9     7    14    1
    10    14    15    2
    11    14    16   am
    12    16    17    1
    13    17    18    1
    14    18    19    1
    15    19    20    1
    16    20    21    1
    17     7     8   ar
    18     8     9   ar
    19     9    10    1
    20    10    11    1
    21    11    12    1
    22    12    13    1
    23    22    23    1
    24    23    24   ar
    25    24    25   ar
    26    25    26   ar
    27    26    29    1
    28    29    30    1
    29    29    31    1
    30    29    32    1
    31    26    27   ar
    32    27    28   ar
    33     9     5   ar
    34    28    23   ar
    35    20    16    1
    36    13     8    1
    37     1     4    1
@<TRIPOS>MOLECULE
*****
 34 37 0 0 0
SMALL
GASTEIGER

@<TRIPOS>ATOM
      1 N         140.3108  143.3347  162.5031 N.am    1  UNL1       -0.2987
      2 C         141.7826  143.3894  162.2183 C.2     1  UNL1        0.2472
      3 O         142.7659  143.3937  163.3509 O.2     1  UNL1       -0.2701
      4 H         139.6654  143.3319  161.7597 H       1  UNL1        0.1500
      5 C         142.2709  143.4399  160.8009 C.ar    1  UNL1        0.0690
      6 C         143.4039  142.6400  160.2296 C.ar    1  UNL1        0.0275
      7 C         143.5450  143.0049  158.7816 C.ar    1  UNL1        0.1142
      8 N         142.4993  144.0304  158.4579 N.ar    1  UNL1       -0.3223
      9 C         141.7118  144.2993  159.7059 C.ar    1  UNL1        0.0717
     10 C         140.5874  145.2918  159.6840 C.3     1  UNL1        0.1857
     11 O         140.2505  146.0155  158.4141 O.3     1  UNL1       -0.3454
     12 C         141.0380  145.7467  157.1661 C.3     1  UNL1        0.1671
     13 C         142.1624  144.7541  157.1880 C.3     1  UNL1        0.1379
     14 C         144.5547  142.4430  157.8251 C.2     1  UNL1        0.2649
     15 O         145.9966  142.8408  157.9372 O.2     1  UNL1       -0.2683
     16 N         144.1224  141.4833  156.7563 N.am    1  UNL1       -0.2765
     17 C         142.7232  140.9959  156.5225 C.3     1  UNL1        0.0937
     18 C         142.7495  140.0539  155.3555 C.3     1  UNL1        0.0232
     19 C         144.1648  139.9591  154.8680 C.3     1  UNL1        0.0216
     20 C         145.0134  140.8425  155.7338 C.3     1  UNL1        0.0758
     21 C         146.4931  141.0490  155.6005 C.3     1  UNL1        0.0215
     22 C         139.8226  143.2842  163.9205 C.3     1  UNL1        0.0943
     23 C         139.3795  141.9803  164.5151 C.ar    1  UNL1       -0.0045
     24 C         139.8959  141.5541  165.8574 C.ar    1  UNL1       -0.0027
     25 C         139.4527  140.2503  166.4520 C.ar    1  UNL1        0.0036
     26 C         138.4932  139.3726  165.7044 C.ar    1  UNL1        0.0714
     27 C         137.9768  139.7988  164.3621 C.ar    1  UNL1        0.0036
     28 C         138.4199  141.1027  163.7675 C.ar    1  UNL1       -0.0027
     29 C         138.0501  138.0688  166.2990 C.3     1  UNL1        0.4186
     30 F         137.6070  136.7649  166.8936 F       1  UNL1       -0.1659
     31 F         137.2720  138.8103  167.3453 F       1  UNL1       -0.1659
     32 F         138.8281  137.3272  165.2527 F       1  UNL1       -0.1659
     33 C         138.5253  144.9043  165.4832 C.3     1  UNL1        0.0021
     34 C         139.7775  144.5376  164.7432 C.3     1  UNL1        0.0241
@<TRIPOS>BOND
     1    33    34    1
     2    22    34    1
     3    22     1    1
     4     1     2   am
     5     2     3    2
     6     2     5    1
     7     5     6   ar
     8     6     7   ar
     9     7    14    1
    10    14    15    2
    11    14    16   am
    12    16    17    1
    13    17    18    1
    14    18    19    1
    15    19    20    1
    16    20    21    1
    17     7     8   ar
    18     8     9   ar
    19     9    10    1
    20    10    11    1
    21    11    12    1
    22    12    13    1
    23    22    23    1
    24    23    24   ar
    25    24    25   ar
    26    25    26   ar
    27    26    29    1
    28    29    30    1
    29    29    31    1
    30    29    32    1
    31    26    27   ar
    32    27    28   ar
    33     9     5   ar
    34    28    23   ar
    35    20    16    1
    36    13     8    1
    37     1     4    1
@<TRIPOS>MOLECULE
*****
 34 37 0 0 0
SMALL
GASTEIGER

@<TRIPOS>ATOM
      1 N         139.1955  144.1226  161.2729 N.am    1  UNL1       -0.2987
      2 C         140.2786  144.0272  160.2395 C.2     1  UNL1        0.2472
      3 O         141.6752  143.6635  160.6484 O.2     1  UNL1       -0.2701
      4 H         138.2788  144.3613  161.0046 H       1  UNL1        0.1500
      5 C         139.9650  144.2954  158.7974 C.ar    1  UNL1        0.0690
      6 C         140.5091  145.4235  157.9719 C.ar    1  UNL1        0.0275
      7 C         139.9326  145.3080  156.5919 C.ar    1  UNL1        0.1142
      8 N         139.0324  144.1085  156.5645 N.ar    1  UNL1       -0.3223
      9 C         139.0524  143.4827  157.9276 C.ar    1  UNL1        0.0717
     10 C         138.2371  142.2536  158.2007 C.3     1  UNL1        0.1857
     11 O         137.4017  141.6504  157.1107 O.3     1  UNL1       -0.3454
     12 C         137.3816  142.2762  155.7476 C.3     1  UNL1        0.1671
     13 C         138.1970  143.5052  155.4745 C.3     1  UNL1        0.1379
     14 C         140.2080  146.2300  155.4413 C.2     1  UNL1        0.2649
     15 O         141.0410  145.7597  154.2860 O.2     1  UNL1       -0.2683
     16 N         139.6504  147.6226  155.4460 N.am    1  UNL1       -0.2765
     17 C         138.8050  148.2301  156.5259 C.3     1  UNL1        0.0937
     18 C         138.4725  149.6350  156.1189 C.3     1  UNL1        0.0232
     19 C         139.1124  149.8958  154.7876 C.3     1  UNL1        0.0216
     20 C         139.8404  148.6521  154.3717 C.3     1  UNL1        0.0758
     21 C         140.6213  148.4697  153.1041 C.3     1  UNL1        0.0215
     22 C         139.5090  143.8543  162.7150 C.3     1  UNL1        0.0943
     23 C         139.2979  142.4834  163.2860 C.ar    1  UNL1       -0.0045
     24 C         140.1863  141.3505  162.8649 C.ar    1  UNL1       -0.0027
     25 C         139.9752  139.9796  163.4359 C.ar    1  UNL1        0.0036
     26 C         138.8757  139.7416  164.4280 C.ar    1  UNL1        0.0714
     27 C         137.9873  140.8744  164.8492 C.ar    1  UNL1        0.0036
     28 C         138.1984  142.2454  164.2782 C.ar    1  UNL1       -0.0027
     29 C         138.6646  138.3707  164.9990 C.3     1  UNL1        0.4186
     30 F         138.4535  136.9998  165.5700 F       1  UNL1       -0.1659
     31 F         139.5062  137.7851  163.9042 F       1  UNL1       -0.1659
     32 F         137.8230  138.9563  166.0938 F       1  UNL1       -0.1659
     33 C         141.5095  145.0916  163.8181 C.3     1  UNL1        0.0021
     34 C         140.0337  144.9570  163.5861 C.3     1  UNL1        0.0241
@<TRIPOS>BOND
     1    33    34    1
     2    22    34    1
     3    22     1    1
     4     1     2   am
     5     2     3    2
     6     2     5    1
     7     5     6   ar
     8     6     7   ar
     9     7    14    1
    10    14    15    2
    11    14    16   am
    12    16    17    1
    13    17    18    1
    14    18    19    1
    15    19    20    1
    16    20    21    1
    17     7     8   ar
    18     8     9   ar
    19     9    10    1
    20    10    11    1
    21    11    12    1
    22    12    13    1
    23    22    23    1
    24    23    24   ar
    25    24    25   ar
    26    25    26   ar
    27    26    29    1
    28    29    30    1
    29    29    31    1
    30    29    32    1
    31    26    27   ar
    32    27    28   ar
    33     9     5   ar
    34    28    23   ar
    35    20    16    1
    36    13     8    1
    37     1     4    1
@<TRIPOS>MOLECULE
*****
 34 37 0 0 0
SMALL
GASTEIGER

@<TRIPOS>ATOM
      1 N         139.8385  140.3510  164.1156 N.am    1  UNL1       -0.2987
      2 C         138.8404  141.3337  163.5787 C.2     1  UNL1        0.2472
      3 O         137.7455  141.8503  164.4643 O.2     1  UNL1       -0.2701
      4 H         140.5571  140.0119  163.5344 H       1  UNL1        0.1500
      5 C         138.9372  141.7998  162.1563 C.ar    1  UNL1        0.0690
      6 C         138.3743  141.0956  160.9575 C.ar    1  UNL1        0.0275
      7 C         138.7033  141.9126  159.7432 C.ar    1  UNL1        0.1142
      8 N         139.4695  143.1217  160.1916 N.ar    1  UNL1       -0.3223
      9 C         139.6141  143.0520  161.6830 C.ar    1  UNL1        0.0717
     10 C         140.3434  144.1377  162.4173 C.3     1  UNL1        0.1857
     11 O         140.9280  145.2931  161.6603 O.3     1  UNL1       -0.3454
     12 C         140.7834  145.3628  160.1689 C.3     1  UNL1        0.1671
     13 C         140.0541  144.2771  159.4346 C.3     1  UNL1        0.1379
     14 C         138.3313  141.5790  158.3289 C.2     1  UNL1        0.2649
     15 O         137.4320  142.4956  157.5537 O.2     1  UNL1       -0.2683
     16 N         138.8588  140.3287  157.6896 N.am    1  UNL1       -0.2765
     17 C         139.7626  139.3214  158.3366 C.3     1  UNL1        0.0937
     18 C         140.0373  138.2364  157.3380 C.3     1  UNL1        0.0232
     19 C         139.3034  138.5730  156.0739 C.3     1  UNL1        0.0216
     20 C         138.5750  139.8661  156.2912 C.3     1  UNL1        0.0758
     21 C         137.7140  140.5727  155.2865 C.3     1  UNL1        0.0215
     22 C         139.7416  139.8849  165.5381 C.3     1  UNL1        0.0943
     23 C         140.4991  140.6024  166.6157 C.ar    1  UNL1       -0.0045
     24 C         141.6899  139.9522  167.2555 C.ar    1  UNL1       -0.0027
     25 C         142.4475  140.6697  168.3331 C.ar    1  UNL1        0.0036
     26 C         142.0143  142.0374  168.7709 C.ar    1  UNL1        0.0714
     27 C         140.8235  142.6876  168.1311 C.ar    1  UNL1        0.0036
     28 C         140.0659  141.9701  167.0535 C.ar    1  UNL1       -0.0027
     29 C         142.7718  142.7550  169.8485 C.3     1  UNL1        0.4186
     30 F         143.5294  143.4725  170.9261 F       1  UNL1       -0.1659
     31 F         143.8742  141.7428  169.7475 F       1  UNL1       -0.1659
     32 F         141.6695  143.7672  169.9495 F       1  UNL1       -0.1659
     33 C         137.8442  138.8161  166.9548 C.3     1  UNL1        0.0021
     34 C         138.8871  138.7013  165.8828 C.3     1  UNL1        0.0241
@<TRIPOS>BOND
     1    33    34    1
     2    22    34    1
     3    22     1    1
     4     1     2   am
     5     2     3    2
     6     2     5    1
     7     5     6   ar
     8     6     7   ar
     9     7    14    1
    10    14    15    2
    11    14    16   am
    12    16    17    1
    13    17    18    1
    14    18    19    1
    15    19    20    1
    16    20    21    1
    17     7     8   ar
    18     8     9   ar
    19     9    10    1
    20    10    11    1
    21    11    12    1
    22    12    13    1
    23    22    23    1
    24    23    24   ar
    25    24    25   ar
    26    25    26   ar
    27    26    29    1
    28    29    30    1
    29    29    31    1
    30    29    32    1
    31    26    27   ar
    32    27    28   ar
    33     9     5   ar
    34    28    23   ar
    35    20    16    1
    36    13     8    1
    37     1     4    1
@<TRIPOS>MOLECULE
*****
 34 37 0 0 0
SMALL
GASTEIGER

@<TRIPOS>ATOM
      1 N         139.8681  139.7385  164.1574 N.am    1  UNL1       -0.2987
      2 C         140.7589  138.7902  163.4108 C.2     1  UNL1        0.2472
      3 O         141.3930  137.6353  164.1275 O.2     1  UNL1       -0.2701
      4 H         139.4518  140.4966  163.6870 H       1  UNL1        0.1500
      5 C         141.0155  138.9971  161.9474 C.ar    1  UNL1        0.0690
      6 C         140.2698  138.3455  160.8208 C.ar    1  UNL1        0.0275
      7 C         140.8563  138.8376  159.5309 C.ar    1  UNL1        0.1142
      8 N         141.9645  139.7934  159.8603 N.ar    1  UNL1       -0.3223
      9 C         142.0628  139.8920  161.3538 C.ar    1  UNL1        0.0717
     10 C         143.0934  140.7839  161.9804 C.3     1  UNL1        0.1857
     11 O         144.0255  141.5771  161.1134 O.3     1  UNL1       -0.3454
     12 C         143.9271  141.4786  159.6198 C.3     1  UNL1        0.1671
     13 C         142.8966  140.5867  158.9933 C.3     1  UNL1        0.1379
     14 C         140.4126  138.4432  158.1534 C.2     1  UNL1        0.2649
     15 O         139.0821  138.9011  157.6341 O.2     1  UNL1       -0.2683
     16 N         141.2997  137.5908  157.2950 N.am    1  UNL1       -0.2765
     17 C         142.6498  137.0601  157.6765 C.3     1  UNL1        0.0937
     18 C         143.1768  136.2608  156.5218 C.3     1  UNL1        0.0232
     19 C         142.1524  136.2974  155.4267 C.3     1  UNL1        0.0216
     20 C         140.9923  137.1194  155.9046 C.3     1  UNL1        0.0758
     21 C         139.7439  137.4177  155.1283 C.3     1  UNL1        0.0215
     22 C         139.6115  139.5316  165.6208 C.3     1  UNL1        0.0943
     23 C         140.3718  140.3322  166.6361 C.ar    1  UNL1       -0.0045
     24 C         140.0248  141.7730  166.8680 C.ar    1  UNL1       -0.0027
     25 C         140.7852  142.5735  167.8833 C.ar    1  UNL1        0.0036
     26 C         141.8926  141.9334  168.6667 C.ar    1  UNL1        0.0714
     27 C         142.2396  140.4926  168.4348 C.ar    1  UNL1        0.0036
     28 C         141.4793  139.6920  167.4195 C.ar    1  UNL1       -0.0027
     29 C         142.6530  142.7339  169.6820 C.3     1  UNL1        0.4186
     30 F         143.4134  143.5345  170.6973 F       1  UNL1       -0.1659
     31 F         143.8082  141.7843  169.5657 F       1  UNL1       -0.1659
     32 F         141.4977  143.6836  169.7984 F       1  UNL1       -0.1659
     33 C         137.7395  138.8043  167.2689 C.3     1  UNL1        0.0021
     34 C         138.5945  138.5241  166.0687 C.3     1  UNL1        0.0241
@<TRIPOS>BOND
     1    33    34    1
     2    22    34    1
     3    22     1    1
     4     1     2   am
     5     2     3    2
     6     2     5    1
     7     5     6   ar
     8     6     7   ar
     9     7    14    1
    10    14    15    2
    11    14    16   am
    12    16    17    1
    13    17    18    1
    14    18    19    1
    15    19    20    1
    16    20    21    1
    17     7     8   ar
    18     8     9   ar
    19     9    10    1
    20    10    11    1
    21    11    12    1
    22    12    13    1
    23    22    23    1
    24    23    24   ar
    25    24    25   ar
    26    25    26   ar
    27    26    29    1
    28    29    30    1
    29    29    31    1
    30    29    32    1
    31    26    27   ar
    32    27    28   ar
    33     9     5   ar
    34    28    23   ar
    35    20    16    1
    36    13     8    1
    37     1     4    1
@<TRIPOS>MOLECULE
*****
 34 37 0 0 0
SMALL
GASTEIGER

@<TRIPOS>ATOM
      1 N         136.0177  142.0422  156.2478 N.am    1  UNL1       -0.2987
      2 C         137.1996  141.2948  156.7906 C.2     1  UNL1        0.2472
      3 O         137.4577  139.8825  156.3565 O.2     1  UNL1       -0.2701
      4 H         135.8482  142.9692  156.5328 H       1  UNL1        0.1500
      5 C         138.1234  141.9599  157.7675 C.ar    1  UNL1        0.0690
      6 C         138.4879  141.4439  159.1280 C.ar    1  UNL1        0.0275
      7 C         139.4346  142.4228  159.7567 C.ar    1  UNL1        0.1142
      8 N         139.6552  143.5439  158.7849 N.ar    1  UNL1       -0.3223
      9 C         138.8448  143.2578  157.5555 C.ar    1  UNL1        0.0717
     10 C         138.8685  144.2161  156.4017 C.3     1  UNL1        0.1857
     11 O         139.7026  145.4605  156.4774 O.3     1  UNL1       -0.3454
     12 C         140.5130  145.7466  157.7068 C.3     1  UNL1        0.1671
     13 C         140.4893  144.7883  158.8605 C.3     1  UNL1        0.1379
     14 C         140.0523  142.3020  161.1183 C.2     1  UNL1        0.2649
     15 O         141.3667  141.5992  161.2859 O.2     1  UNL1       -0.2683
     16 N         139.3554  142.8840  162.3124 N.am    1  UNL1       -0.2765
     17 C         138.0433  143.6109  162.2999 C.3     1  UNL1        0.0937
     18 C         137.7253  144.0174  163.7083 C.3     1  UNL1        0.0232
     19 C         138.8408  143.5419  164.5912 C.3     1  UNL1        0.0216
     20 C         139.8483  142.8414  163.7284 C.3     1  UNL1        0.0758
     21 C         141.1246  142.2093  164.1991 C.3     1  UNL1        0.0215
     22 C         135.0939  141.3772  155.2709 C.3     1  UNL1        0.0943
     23 C         133.8600  140.6793  155.7612 C.ar    1  UNL1       -0.0045
     24 C         133.9683  139.3304  156.4084 C.ar    1  UNL1       -0.0027
     25 C         132.7344  138.6325  156.8987 C.ar    1  UNL1        0.0036
     26 C         131.3922  139.2835  156.7418 C.ar    1  UNL1        0.0714
     27 C         131.2838  140.6323  156.0946 C.ar    1  UNL1        0.0036
     28 C         132.5178  141.3302  155.6043 C.ar    1  UNL1       -0.0027
     29 C         130.1583  138.5856  157.2321 C.3     1  UNL1        0.4186
     30 F         128.9244  137.8877  157.7224 F       1  UNL1       -0.1659
     31 F         130.0747  139.5426  158.3841 F       1  UNL1       -0.1659
     32 F         130.2418  137.6285  156.0801 F       1  UNL1       -0.1659
     33 C         135.8508  140.1609  153.1035 C.3     1  UNL1        0.0021
     34 C         135.4041  141.4100  153.8038 C.3     1  UNL1        0.0241
@<TRIPOS>BOND
     1    33    34    1
     2    22    34    1
     3    22     1    1
     4     1     2   am
     5     2     3    2
     6     2     5    1
     7     5     6   ar
     8     6     7   ar
     9     7    14    1
    10    14    15    2
    11    14    16   am
    12    16    17    1
    13    17    18    1
    14    18    19    1
    15    19    20    1
    16    20    21    1
    17     7     8   ar
    18     8     9   ar
    19     9    10    1
    20    10    11    1
    21    11    12    1
    22    12    13    1
    23    22    23    1
    24    23    24   ar
    25    24    25   ar
    26    25    26   ar
    27    26    29    1
    28    29    30    1
    29    29    31    1
    30    29    32    1
    31    26    27   ar
    32    27    28   ar
    33     9     5   ar
    34    28    23   ar
    35    20    16    1
    36    13     8    1
    37     1     4    1
@<TRIPOS>MOLECULE
*****
 34 37 0 0 0
SMALL
GASTEIGER

@<TRIPOS>ATOM
      1 N         139.9138  145.5619  156.9882 N.am    1  UNL1       -0.2987
      2 C         141.2545  145.5797  157.6608 C.2     1  UNL1        0.2472
      3 O         142.4252  146.2272  156.9826 O.2     1  UNL1       -0.2701
      4 H         139.1454  145.1369  157.4333 H       1  UNL1        0.1500
      5 C         141.4244  144.9498  159.0115 C.ar    1  UNL1        0.0690
      6 C         140.6510  145.2959  160.2493 C.ar    1  UNL1        0.0275
      7 C         141.1461  144.4232  161.3643 C.ar    1  UNL1        0.1142
      8 N         142.2255  143.5378  160.8157 N.ar    1  UNL1       -0.3223
      9 C         142.3975  143.8633  159.3616 C.ar    1  UNL1        0.0717
     10 C         143.4180  143.1282  158.5441 C.3     1  UNL1        0.1857
     11 O         144.2665  142.0677  159.1807 O.3     1  UNL1       -0.3454
     12 C         144.0945  141.7423  160.6349 C.3     1  UNL1        0.1671
     13 C         143.0740  142.4773  161.4524 C.3     1  UNL1        0.1379
     14 C         140.6491  144.4340  162.7796 C.2     1  UNL1        0.2649
     15 O         141.3676  145.2400  163.8207 O.2     1  UNL1       -0.2683
     16 N         139.4335  143.6387  163.1537 N.am    1  UNL1       -0.2765
     17 C         138.6156  142.7897  162.2262 C.3     1  UNL1        0.0937
     18 C         137.4991  142.1791  163.0203 C.3     1  UNL1        0.0232
     19 C         137.6269  142.6506  164.4384 C.3     1  UNL1        0.0216
     20 C         138.8225  143.5528  164.5209 C.3     1  UNL1        0.0758
     21 C         139.3198  144.2470  165.7540 C.3     1  UNL1        0.0215
     22 C         139.7439  146.1918  155.6375 C.3     1  UNL1        0.0943
     23 C         139.4467  147.6578  155.5256 C.ar    1  UNL1       -0.0045
     24 C         139.8827  148.4208  154.3099 C.ar    1  UNL1       -0.0027
     25 C         139.5855  149.8867  154.1980 C.ar    1  UNL1        0.0036
     26 C         138.8524  150.5897  155.3018 C.ar    1  UNL1        0.0714
     27 C         138.4164  149.8268  156.5174 C.ar    1  UNL1        0.0036
     28 C         138.7136  148.3608  156.6293 C.ar    1  UNL1       -0.0027
     29 C         138.5552  152.0557  155.1899 C.3     1  UNL1        0.4186
     30 F         138.2580  153.5217  155.0780 F       1  UNL1       -0.1659
     31 F         138.3215  151.8959  153.7168 F       1  UNL1       -0.1659
     32 F         138.7889  152.2156  156.6629 F       1  UNL1       -0.1659
     33 C         141.2292  145.0157  153.8597 C.3     1  UNL1        0.0021
     34 C         139.8713  145.3556  154.3988 C.3     1  UNL1        0.0241
@<TRIPOS>BOND
     1    33    34    1
     2    22    34    1
     3    22     1    1
     4     1     2   am
     5     2     3    2
     6     2     5    1
     7     5     6   ar
     8     6     7   ar
     9     7    14    1
    10    14    15    2
    11    14    16   am
    12    16    17    1
    13    17    18    1
    14    18    19    1
    15    19    20    1
    16    20    21    1
    17     7     8   ar
    18     8     9   ar
    19     9    10    1
    20    10    11    1
    21    11    12    1
    22    12    13    1
    23    22    23    1
    24    23    24   ar
    25    24    25   ar
    26    25    26   ar
    27    26    29    1
    28    29    30    1
    29    29    31    1
    30    29    32    1
    31    26    27   ar
    32    27    28   ar
    33     9     5   ar
    34    28    23   ar
    35    20    16    1
    36    13     8    1
    37     1     4    1
@<TRIPOS>MOLECULE
*****
 34 37 0 0 0
SMALL
GASTEIGER

@<TRIPOS>ATOM
      1 N         140.5305  139.4582  164.0898 N.am    1  UNL1       -0.2987
      2 C         139.6140  139.9782  163.0222 C.2     1  UNL1        0.2472
      3 O         138.2212  140.4095  163.3743 O.2     1  UNL1       -0.2701
      4 H         141.4447  139.1751  163.8588 H       1  UNL1        0.1500
      5 C         140.0903  140.0668  161.6026 C.ar    1  UNL1        0.0690
      6 C         140.9147  139.0404  160.8836 C.ar    1  UNL1        0.0275
      7 C         141.1597  139.5367  159.4894 C.ar    1  UNL1        0.1142
      8 N         140.4869  140.8697  159.3468 N.ar    1  UNL1       -0.3223
      9 C         139.8259  141.1973  160.6529 C.ar    1  UNL1        0.0717
     10 C         139.0687  142.4827  160.8086 C.3     1  UNL1        0.1857
     11 O         138.9725  143.4405  159.6583 O.3     1  UNL1       -0.3454
     12 C         139.6334  143.1129  158.3522 C.3     1  UNL1        0.1671
     13 C         140.3906  141.8275  158.1965 C.3     1  UNL1        0.1379
     14 C         141.9406  138.8249  158.4247 C.2     1  UNL1        0.2649
     15 O         143.4396  138.8791  158.4311 O.2     1  UNL1       -0.2683
     16 N         141.2224  138.0587  157.3535 N.am    1  UNL1       -0.2765
     17 C         139.7354  137.9156  157.2182 C.3     1  UNL1        0.0937
     18 C         139.4592  137.0697  156.0107 C.3     1  UNL1        0.0232
     19 C         140.7754  136.6900  155.3997 C.3     1  UNL1        0.0216
     20 C         141.8652  137.3013  156.2296 C.3     1  UNL1        0.0758
     21 C         143.3389  137.1770  155.9796 C.3     1  UNL1        0.0215
     22 C         140.0541  139.3696  165.5094 C.3     1  UNL1        0.0943
     23 C         140.6732  140.2384  166.5639 C.ar    1  UNL1       -0.0045
     24 C         141.8141  139.7198  167.3882 C.ar    1  UNL1       -0.0027
     25 C         142.4332  140.5886  168.4427 C.ar    1  UNL1        0.0036
     26 C         141.9114  141.9760  168.6728 C.ar    1  UNL1        0.0714
     27 C         140.7706  142.4945  167.8485 C.ar    1  UNL1        0.0036
     28 C         140.1515  141.6257  166.7940 C.ar    1  UNL1       -0.0027
     29 C         142.5306  142.8448  169.7273 C.3     1  UNL1        0.4186
     30 F         143.1497  143.7136  170.7817 F       1  UNL1       -0.1659
     31 F         141.2848  143.6791  169.7713 F       1  UNL1       -0.1659
     32 F         143.7763  142.0104  169.6833 F       1  UNL1       -0.1659
     33 C         137.9148  138.8129  166.8743 C.3     1  UNL1        0.0021
     34 C         138.9587  138.4122  165.8745 C.3     1  UNL1        0.0241
@<TRIPOS>BOND
     1    33    34    1
     2    22    34    1
     3    22     1    1
     4     1     2   am
     5     2     3    2
     6     2     5    1
     7     5     6   ar
     8     6     7   ar
     9     7    14    1
    10    14    15    2
    11    14    16   am
    12    16    17    1
    13    17    18    1
    14    18    19    1
    15    19    20    1
    16    20    21    1
    17     7     8   ar
    18     8     9   ar
    19     9    10    1
    20    10    11    1
    21    11    12    1
    22    12    13    1
    23    22    23    1
    24    23    24   ar
    25    24    25   ar
    26    25    26   ar
    27    26    29    1
    28    29    30    1
    29    29    31    1
    30    29    32    1
    31    26    27   ar
    32    27    28   ar
    33     9     5   ar
    34    28    23   ar
    35    20    16    1
    36    13     8    1
    37     1     4    1
@<TRIPOS>MOLECULE
*****
 34 37 0 0 0
SMALL
GASTEIGER

@<TRIPOS>ATOM
      1 N         142.2032  141.8702  163.5157 N.am    1  UNL1       -0.2987
      2 C         143.2188  141.1564  162.6734 C.2     1  UNL1        0.2472
      3 O         144.1779  140.1946  163.3095 O.2     1  UNL1       -0.2701
      4 H         141.5736  142.5015  163.0983 H       1  UNL1        0.1500
      5 C         143.2750  141.4046  161.1952 C.ar    1  UNL1        0.0690
      6 C         143.8135  140.4595  160.1623 C.ar    1  UNL1        0.0275
      7 C         143.6738  141.1123  158.8191 C.ar    1  UNL1        0.1142
      8 N         143.0491  142.4608  159.0217 N.ar    1  UNL1       -0.3223
      9 C         142.8026  142.6415  160.4903 C.ar    1  UNL1        0.0717
     10 C         142.1798  143.9090  160.9959 C.3     1  UNL1        0.1857
     11 O         141.8035  144.9957  160.0329 O.3     1  UNL1       -0.3454
     12 C         142.0501  144.8151  158.5644 C.3     1  UNL1        0.1671
     13 C         142.6728  143.5476  158.0588 C.3     1  UNL1        0.1379
     14 C         144.0865  140.5205  157.5040 C.2     1  UNL1        0.2649
     15 O         143.3266  139.3607  156.9319 O.2     1  UNL1       -0.2683
     16 N         145.2593  141.0885  156.7609 N.am    1  UNL1       -0.2765
     17 C         146.1108  142.2405  157.2056 C.3     1  UNL1        0.0937
     18 C         147.1641  142.4682  156.1623 C.3     1  UNL1        0.0232
     19 C         146.9637  141.4569  155.0727 C.3     1  UNL1        0.0216
     20 C         145.7864  140.6042  155.4427 C.3     1  UNL1        0.0758
     21 C         145.2333  139.4669  154.6362 C.3     1  UNL1        0.0215
     22 C         142.1470  141.6220  164.9940 C.3     1  UNL1        0.0943
     23 C         141.0212  140.8209  165.5777 C.ar    1  UNL1       -0.0045
     24 C         140.2572  139.8612  164.7144 C.ar    1  UNL1       -0.0027
     25 C         139.1314  139.0600  165.2981 C.ar    1  UNL1        0.0036
     26 C         138.7696  139.2186  166.7451 C.ar    1  UNL1        0.0714
     27 C         139.5336  140.1783  167.6085 C.ar    1  UNL1        0.0036
     28 C         140.6594  140.9794  167.0247 C.ar    1  UNL1       -0.0027
     29 C         137.6438  138.4174  167.3288 C.3     1  UNL1        0.4186
     30 F         136.5180  137.6163  167.9126 F       1  UNL1       -0.1659
     31 F         137.6296  137.5472  166.1072 F       1  UNL1       -0.1659
     32 F         137.6580  139.2877  168.5505 F       1  UNL1       -0.1659
     33 C         144.1367  143.2465  165.3833 C.3     1  UNL1        0.0021
     34 C         143.2166  142.1750  165.8884 C.3     1  UNL1        0.0241
@<TRIPOS>BOND
     1    33    34    1
     2    22    34    1
     3    22     1    1
     4     1     2   am
     5     2     3    2
     6     2     5    1
     7     5     6   ar
     8     6     7   ar
     9     7    14    1
    10    14    15    2
    11    14    16   am
    12    16    17    1
    13    17    18    1
    14    18    19    1
    15    19    20    1
    16    20    21    1
    17     7     8   ar
    18     8     9   ar
    19     9    10    1
    20    10    11    1
    21    11    12    1
    22    12    13    1
    23    22    23    1
    24    23    24   ar
    25    24    25   ar
    26    25    26   ar
    27    26    29    1
    28    29    30    1
    29    29    31    1
    30    29    32    1
    31    26    27   ar
    32    27    28   ar
    33     9     5   ar
    34    28    23   ar
    35    20    16    1
    36    13     8    1
    37     1     4    1
