@<TRIPOS>MOLECULE
*****
 27 30 0 0 0
SMALL
GASTEIGER

@<TRIPOS>ATOM
      1 N         141.5726  142.3194  168.2857 N.3     1  UNL1       -0.2709
      2 C         141.3065  143.1501  169.5061 C.3     1  UNL1        0.0614
      3 C         142.5539  143.1629  170.3391 C.3     1  UNL1        0.0175
      4 C         143.5908  142.3402  169.6335 C.3     1  UNL1        0.0175
      5 C         142.9844  141.8189  168.3645 C.3     1  UNL1        0.0614
      6 C         142.1280  141.4443  167.1790 C.3     1  UNL1        0.0595
      7 C         140.7426  142.0164  167.2374 C.3     1  UNL1        0.1686
      8 C         140.3318  142.8693  168.4010 C.3     1  UNL1        0.0595
      9 C         140.5979  142.0386  167.1806 C.3     1  UNL1        0.1056
     10 C         141.4264  144.9502  162.8544 C.3     1  UNL1        0.0381
     11 C         140.7931  144.3718  164.0849 C.ar    1  UNL1        0.0073
     12 C         139.4601  144.7572  164.6547 C.ar    1  UNL1        0.0024
     13 C         139.2248  143.9301  165.8837 C.ar    1  UNL1        0.0037
     14 C         140.4123  143.0335  166.0735 C.ar    1  UNL1        0.0231
     15 S         141.3815  143.3066  164.9618 S.2     1  UNL1       -0.0942
     16 O         139.7679  141.7356  166.1323 O.3     1  UNL1       -0.4791
     17 C         139.3365  140.3264  165.8529 C.ar    1  UNL1        0.1385
     18 C         138.5324  139.5725  166.8702 C.ar    1  UNL1        0.0369
     19 C         138.1010  138.1634  166.5909 C.ar    1  UNL1        0.0033
     20 C         138.4737  137.5080  165.2941 C.ar    1  UNL1        0.0047
     21 C         139.2778  138.2619  164.2768 C.ar    1  UNL1        0.0561
     22 C         139.7093  139.6711  164.5562 C.ar    1  UNL1        0.0414
     23 C         139.6506  137.6065  162.9800 C.2     1  UNL1        0.2428
     24 N         138.7042  137.6526  161.8171 N.am    1  UNL1       -0.3253
     25 O         140.9697  136.9050  162.8461 O.2     1  UNL1       -0.2704
     26 H         137.8384  138.1130  161.9050 H       1  UNL1        0.1453
     27 H         138.9489  137.2224  160.9660 H       1  UNL1        0.1453
@<TRIPOS>BOND
     1    10    11    1
     2    11    12   ar
     3    12    13   ar
     4    13    14   ar
     5    14     9    1
     6     9     1    1
     7     1     2    1
     8     2     3    1
     9     3     4    1
    10     5     4    1
    11     5     6    1
    12     6     7    1
    13     7    16    1
    14    16    17    1
    15    17    18   ar
    16    18    19   ar
    17    19    20   ar
    18    20    21   ar
    19    21    23    1
    20    23    24   am
    21    23    25    2
    22    21    22   ar
    23     7     8    1
    24    14    15   ar
    25    15    11   ar
    26     5     1    1
    27    22    17   ar
    28     8     2    1
    29    24    26    1
    30    24    27    1
@<TRIPOS>MOLECULE
*****
 27 30 0 0 0
SMALL
GASTEIGER

@<TRIPOS>ATOM
      1 N         139.8210  139.9166  163.8883 N.3     1  UNL1       -0.2709
      2 C         140.5604  139.3032  162.7363 C.3     1  UNL1        0.0614
      3 C         139.9175  137.9849  162.4219 C.3     1  UNL1        0.0175
      4 C         138.7807  137.7836  163.3797 C.3     1  UNL1        0.0175
      5 C         138.7211  138.9774  164.2859 C.3     1  UNL1        0.0614
      6 C         138.8982  140.2751  165.0368 C.3     1  UNL1        0.0595
      7 C         140.0360  141.1098  164.5282 C.3     1  UNL1        0.1686
      8 C         140.8671  140.6239  163.3780 C.3     1  UNL1        0.0595
      9 C         140.1277  141.2373  164.5299 C.3     1  UNL1        0.1056
     10 C         139.6519  145.8617  162.0263 C.3     1  UNL1        0.0381
     11 C         139.3301  144.6250  162.8116 C.ar    1  UNL1        0.0073
     12 C         137.9857  144.2578  163.3665 C.ar    1  UNL1        0.0024
     13 C         138.1209  142.9441  164.0777 C.ar    1  UNL1        0.0037
     14 C         139.5488  142.4993  163.9624 C.ar    1  UNL1        0.0231
     15 S         140.2961  143.5382  163.1799 S.2     1  UNL1       -0.0942
     16 O         140.3426  142.4306  165.1699 O.3     1  UNL1       -0.4791
     17 C         141.0332  142.4754  166.5008 C.ar    1  UNL1        0.1385
     18 C         142.4576  142.0212  166.6223 C.ar    1  UNL1        0.0369
     19 C         143.1481  142.0660  167.9531 C.ar    1  UNL1        0.0033
     20 C         142.4143  142.5650  169.1624 C.ar    1  UNL1        0.0047
     21 C         140.9899  143.0192  169.0409 C.ar    1  UNL1        0.0561
     22 C         140.2993  142.9744  167.7100 C.ar    1  UNL1        0.0414
     23 C         140.2561  143.5182  170.2502 C.2     1  UNL1        0.2428
     24 N         139.8755  142.5641  171.3433 N.am    1  UNL1       -0.3253
     25 O         139.9028  144.9715  170.3665 O.2     1  UNL1       -0.2704
     26 H         140.1073  141.6103  171.2669 H       1  UNL1        0.1453
     27 H         139.3938  142.8916  172.1370 H       1  UNL1        0.1453
@<TRIPOS>BOND
     1    10    11    1
     2    11    12   ar
     3    12    13   ar
     4    13    14   ar
     5    14     9    1
     6     9     1    1
     7     1     2    1
     8     2     3    1
     9     3     4    1
    10     5     4    1
    11     5     6    1
    12     6     7    1
    13     7    16    1
    14    16    17    1
    15    17    18   ar
    16    18    19   ar
    17    19    20   ar
    18    20    21   ar
    19    21    23    1
    20    23    24   am
    21    23    25    2
    22    21    22   ar
    23     7     8    1
    24    14    15   ar
    25    15    11   ar
    26     5     1    1
    27    22    17   ar
    28     8     2    1
    29    24    26    1
    30    24    27    1
@<TRIPOS>MOLECULE
*****
 27 30 0 0 0
SMALL
GASTEIGER

@<TRIPOS>ATOM
      1 N         143.2893  141.6657  164.5259 N.3     1  UNL1       -0.2709
      2 C         144.4458  142.6202  164.5659 C.3     1  UNL1        0.0614
      3 C         145.6336  141.9350  163.9579 C.3     1  UNL1        0.0175
      4 C         145.2112  140.5571  163.5421 C.3     1  UNL1        0.0175
      5 C         143.7624  140.3906  163.8932 C.3     1  UNL1        0.0614
      6 C         142.3282  140.5062  164.3500 C.3     1  UNL1        0.0595
      7 C         142.0008  141.8359  164.9622 C.3     1  UNL1        0.1686
      8 C         143.0596  142.8929  165.0702 C.3     1  UNL1        0.0595
      9 C         141.9032  141.9384  165.0302 C.3     1  UNL1        0.1056
     10 C         138.1001  142.7517  161.4587 C.3     1  UNL1        0.0381
     11 C         139.1533  142.9883  162.5002 C.ar    1  UNL1        0.0073
     12 C         139.5663  144.3217  163.0493 C.ar    1  UNL1        0.0024
     13 C         140.6466  144.0907  164.0639 C.ar    1  UNL1        0.0037
     14 C         140.9014  142.6145  164.1418 C.ar    1  UNL1        0.0231
     15 S         139.9785  141.9333  163.1754 S.2     1  UNL1       -0.0942
     16 O         140.6146  142.1085  165.4665 O.3     1  UNL1       -0.4791
     17 C         140.2079  141.6408  166.8325 C.ar    1  UNL1        0.1385
     18 C         139.6087  140.2773  167.0108 C.ar    1  UNL1        0.0369
     19 C         139.2020  139.8096  168.3767 C.ar    1  UNL1        0.0033
     20 C         139.3946  140.7054  169.5643 C.ar    1  UNL1        0.0047
     21 C         139.9939  142.0688  169.3860 C.ar    1  UNL1        0.0561
     22 C         140.4005  142.5366  168.0200 C.ar    1  UNL1        0.0414
     23 C         140.1864  142.9646  170.5737 C.2     1  UNL1        0.2428
     24 N         140.1685  144.4544  170.4002 N.am    1  UNL1       -0.3253
     25 O         140.3970  142.3704  171.9349 O.2     1  UNL1       -0.2704
     26 H         140.0303  144.8443  169.5069 H       1  UNL1        0.1453
     27 H         140.2948  145.0423  171.1797 H       1  UNL1        0.1453
@<TRIPOS>BOND
     1    10    11    1
     2    11    12   ar
     3    12    13   ar
     4    13    14   ar
     5    14     9    1
     6     9     1    1
     7     1     2    1
     8     2     3    1
     9     3     4    1
    10     5     4    1
    11     5     6    1
    12     6     7    1
    13     7    16    1
    14    16    17    1
    15    17    18   ar
    16    18    19   ar
    17    19    20   ar
    18    20    21   ar
    19    21    23    1
    20    23    24   am
    21    23    25    2
    22    21    22   ar
    23     7     8    1
    24    14    15   ar
    25    15    11   ar
    26     5     1    1
    27    22    17   ar
    28     8     2    1
    29    24    26    1
    30    24    27    1
@<TRIPOS>MOLECULE
*****
 27 30 0 0 0
SMALL
GASTEIGER

@<TRIPOS>ATOM
      1 N         139.8071  139.6209  164.1445 N.3     1  UNL1       -0.2709
      2 C         140.7843  139.1178  163.1237 C.3     1  UNL1        0.0614
      3 C         140.2259  137.8596  162.5279 C.3     1  UNL1        0.0175
      4 C         138.9034  137.5851  163.1804 C.3     1  UNL1        0.0175
      5 C         138.6446  138.6736  164.1795 C.3     1  UNL1        0.0614
      6 C         138.6513  139.8759  165.0923 C.3     1  UNL1        0.0595
      7 C         139.8754  140.7306  164.9465 C.3     1  UNL1        0.1686
      8 C         140.9419  140.3516  163.9622 C.3     1  UNL1        0.0595
      9 C         139.9646  140.8546  164.9829 C.3     1  UNL1        0.1056
     10 C         139.6804  145.5346  162.5544 C.3     1  UNL1        0.0381
     11 C         139.3235  144.3239  163.3648 C.ar    1  UNL1        0.0073
     12 C         138.0134  144.0785  164.0529 C.ar    1  UNL1        0.0024
     13 C         138.0941  142.7490  164.7428 C.ar    1  UNL1        0.0037
     14 C         139.4541  142.1728  164.4811 C.ar    1  UNL1        0.0231
     15 S         140.2138  143.1461  163.6295 S.2     1  UNL1       -0.0942
     16 O         140.0329  141.9644  165.7851 O.3     1  UNL1       -0.4791
     17 C         140.8873  141.9296  167.0175 C.ar    1  UNL1        0.1385
     18 C         142.3430  142.2808  166.9310 C.ar    1  UNL1        0.0369
     19 C         143.1974  142.2460  168.1633 C.ar    1  UNL1        0.0033
     20 C         142.5961  141.8599  169.4822 C.ar    1  UNL1        0.0047
     21 C         141.1404  141.5086  169.5686 C.ar    1  UNL1        0.0561
     22 C         140.2860  141.5434  168.3362 C.ar    1  UNL1        0.0414
     23 C         140.5391  141.1225  170.8875 C.2     1  UNL1        0.2428
     24 N         139.9685  139.7484  171.0781 N.am    1  UNL1       -0.3253
     25 O         140.5084  142.1105  172.0158 O.2     1  UNL1       -0.2704
     26 H         139.9886  139.0999  170.3375 H       1  UNL1        0.1453
     27 H         139.5739  139.4950  171.9437 H       1  UNL1        0.1453
@<TRIPOS>BOND
     1    10    11    1
     2    11    12   ar
     3    12    13   ar
     4    13    14   ar
     5    14     9    1
     6     9     1    1
     7     1     2    1
     8     2     3    1
     9     3     4    1
    10     5     4    1
    11     5     6    1
    12     6     7    1
    13     7    16    1
    14    16    17    1
    15    17    18   ar
    16    18    19   ar
    17    19    20   ar
    18    20    21   ar
    19    21    23    1
    20    23    24   am
    21    23    25    2
    22    21    22   ar
    23     7     8    1
    24    14    15   ar
    25    15    11   ar
    26     5     1    1
    27    22    17   ar
    28     8     2    1
    29    24    26    1
    30    24    27    1
@<TRIPOS>MOLECULE
*****
 27 30 0 0 0
SMALL
GASTEIGER

@<TRIPOS>ATOM
      1 N         142.9953  140.1764  165.0549 N.3     1  UNL1       -0.2709
      2 C         143.8249  141.1617  164.2861 C.3     1  UNL1        0.0614
      3 C         145.1598  140.5330  164.0165 C.3     1  UNL1        0.0175
      4 C         145.1552  139.1592  164.6186 C.3     1  UNL1        0.0175
      5 C         143.8175  138.9388  165.2604 C.3     1  UNL1        0.0614
      6 C         142.4119  138.9968  165.8081 C.3     1  UNL1        0.0595
      7 C         141.7133  140.2939  165.5262 C.3     1  UNL1        0.1686
      8 C         142.4198  141.3764  164.7652 C.3     1  UNL1        0.0595
      9 C         141.5902  140.3911  165.5340 C.3     1  UNL1        0.1056
     10 C         137.6040  140.6067  162.0779 C.3     1  UNL1        0.0381
     11 C         138.6006  140.0965  163.0760 C.ar    1  UNL1        0.0073
     12 C         138.7035  138.6866  163.5777 C.ar    1  UNL1        0.0024
     13 C         139.8358  138.6254  164.5595 C.ar    1  UNL1        0.0037
     14 C         140.4329  139.9974  164.6646 C.ar    1  UNL1        0.0231
     15 S         139.6695  140.9066  163.7478 S.2     1  UNL1       -0.0942
     16 O         140.3081  140.5086  166.0054 O.3     1  UNL1       -0.4791
     17 C         140.0500  140.8517  167.4427 C.ar    1  UNL1        0.1385
     18 C         139.2388  139.9265  168.3006 C.ar    1  UNL1        0.0369
     19 C         138.9807  140.2696  169.7378 C.ar    1  UNL1        0.0033
     20 C         139.5338  141.5379  170.3171 C.ar    1  UNL1        0.0047
     21 C         140.3449  142.4631  169.4592 C.ar    1  UNL1        0.0561
     22 C         140.6030  142.1199  168.0219 C.ar    1  UNL1        0.0414
     23 C         140.8980  143.7313  170.0385 C.2     1  UNL1        0.2428
     24 N         139.9989  144.9129  170.2521 N.am    1  UNL1       -0.3253
     25 O         142.3502  143.8181  170.4042 O.2     1  UNL1       -0.2704
     26 H         139.0458  144.8560  170.0120 H       1  UNL1        0.1453
     27 H         140.3619  145.7453  170.6323 H       1  UNL1        0.1453
@<TRIPOS>BOND
     1    10    11    1
     2    11    12   ar
     3    12    13   ar
     4    13    14   ar
     5    14     9    1
     6     9     1    1
     7     1     2    1
     8     2     3    1
     9     3     4    1
    10     5     4    1
    11     5     6    1
    12     6     7    1
    13     7    16    1
    14    16    17    1
    15    17    18   ar
    16    18    19   ar
    17    19    20   ar
    18    20    21   ar
    19    21    23    1
    20    23    24   am
    21    23    25    2
    22    21    22   ar
    23     7     8    1
    24    14    15   ar
    25    15    11   ar
    26     5     1    1
    27    22    17   ar
    28     8     2    1
    29    24    26    1
    30    24    27    1
@<TRIPOS>MOLECULE
*****
 27 30 0 0 0
SMALL
GASTEIGER

@<TRIPOS>ATOM
      1 N         142.4118  143.0530  164.6603 N.3     1  UNL1       -0.2709
      2 C         141.4960  144.0487  164.0123 C.3     1  UNL1        0.0614
      3 C         142.3020  145.2674  163.6727 C.3     1  UNL1        0.0175
      4 C         143.7159  145.0248  164.1109 C.3     1  UNL1        0.0175
      5 C         143.7838  143.6563  164.7213 C.3     1  UNL1        0.0614
      6 C         143.5569  142.2685  165.2706 C.3     1  UNL1        0.0595
      7 C         142.1383  141.7985  165.1408 C.3     1  UNL1        0.1686
      8 C         141.1079  142.6886  164.5117 C.3     1  UNL1        0.0595
      9 C         142.0236  141.6929  165.1597 C.3     1  UNL1        0.1056
     10 C         140.6378  138.0293  161.6188 C.3     1  UNL1        0.0381
     11 C         141.4336  138.8288  162.6074 C.ar    1  UNL1        0.0073
     12 C         142.8524  138.5648  163.0165 C.ar    1  UNL1        0.0024
     13 C         143.2461  139.6055  164.0224 C.ar    1  UNL1        0.0037
     14 C         142.0707  140.5128  164.2350 C.ar    1  UNL1        0.0231
     15 S         140.9505  140.0328  163.3604 S.2     1  UNL1       -0.0942
     16 O         141.7502  140.4383  165.6403 O.3     1  UNL1       -0.4791
     17 C         141.4211  140.2373  167.0899 C.ar    1  UNL1        0.1385
     18 C         140.0831  140.6591  167.6207 C.ar    1  UNL1        0.0369
     19 C         139.7541  140.4582  169.0702 C.ar    1  UNL1        0.0033
     20 C         140.7630  139.8355  169.9890 C.ar    1  UNL1        0.0047
     21 C         142.1010  139.4136  169.4582 C.ar    1  UNL1        0.0561
     22 C         142.4301  139.6146  168.0086 C.ar    1  UNL1        0.0414
     23 C         143.1099  138.7909  170.3770 C.2     1  UNL1        0.2428
     24 N         143.8099  139.6320  171.4030 N.am    1  UNL1       -0.3253
     25 O         143.4189  137.3269  170.2699 O.2     1  UNL1       -0.2704
     26 H         143.6071  140.5928  171.4733 H       1  UNL1        0.1453
     27 H         144.4721  139.2233  172.0060 H       1  UNL1        0.1453
@<TRIPOS>BOND
     1    10    11    1
     2    11    12   ar
     3    12    13   ar
     4    13    14   ar
     5    14     9    1
     6     9     1    1
     7     1     2    1
     8     2     3    1
     9     3     4    1
    10     5     4    1
    11     5     6    1
    12     6     7    1
    13     7    16    1
    14    16    17    1
    15    17    18   ar
    16    18    19   ar
    17    19    20   ar
    18    20    21   ar
    19    21    23    1
    20    23    24   am
    21    23    25    2
    22    21    22   ar
    23     7     8    1
    24    14    15   ar
    25    15    11   ar
    26     5     1    1
    27    22    17   ar
    28     8     2    1
    29    24    26    1
    30    24    27    1
@<TRIPOS>MOLECULE
*****
 27 30 0 0 0
SMALL
GASTEIGER

@<TRIPOS>ATOM
      1 N         139.1571  142.9201  164.1705 N.3     1  UNL1       -0.2709
      2 C         137.7472  143.2469  163.7763 C.3     1  UNL1        0.0614
      3 C         137.7890  144.4023  162.8207 C.3     1  UNL1        0.0175
      4 C         139.2247  144.7896  162.6243 C.3     1  UNL1        0.0175
      5 C         140.0703  143.8736  163.4585 C.3     1  UNL1        0.0614
      6 C         140.6565  142.8287  164.3771 C.3     1  UNL1        0.0595
      7 C         139.6244  141.9488  165.0177 C.3     1  UNL1        0.1686
      8 C         138.1697  142.1579  164.7173 C.3     1  UNL1        0.0595
      9 C         139.5796  141.8311  165.1115 C.3     1  UNL1        0.1056
     10 C         141.3818  137.3027  163.0802 C.3     1  UNL1        0.0381
     11 C         140.4806  138.3302  163.6981 C.ar    1  UNL1        0.0073
     12 C         139.0471  138.1248  164.0893 C.ar    1  UNL1        0.0024
     13 C         138.5351  139.4112  164.6663 C.ar    1  UNL1        0.0037
     14 C         139.6522  140.4117  164.6318 C.ar    1  UNL1        0.0231
     15 S         140.8545  139.7436  164.0335 S.2     1  UNL1       -0.0942
     16 O         140.0469  140.8597  165.9587 O.3     1  UNL1       -0.4791
     17 C         139.9640  141.0752  167.4409 C.ar    1  UNL1        0.1385
     18 C         139.3378  140.0308  168.3167 C.ar    1  UNL1        0.0369
     19 C         139.2549  140.2463  169.7988 C.ar    1  UNL1        0.0033
     20 C         139.7982  141.5062  170.4051 C.ar    1  UNL1        0.0047
     21 C         140.4244  142.5505  169.5292 C.ar    1  UNL1        0.0561
     22 C         140.5073  142.3350  168.0471 C.ar    1  UNL1        0.0414
     23 C         140.9676  143.8104  170.1355 C.2     1  UNL1        0.2428
     24 N         140.0664  144.9910  170.3454 N.am    1  UNL1       -0.3253
     25 O         142.4122  143.8897  170.5319 O.2     1  UNL1       -0.2704
     26 H         139.1183  144.9389  170.0853 H       1  UNL1        0.1453
     27 H         140.4230  145.8179  170.7434 H       1  UNL1        0.1453
@<TRIPOS>BOND
     1    10    11    1
     2    11    12   ar
     3    12    13   ar
     4    13    14   ar
     5    14     9    1
     6     9     1    1
     7     1     2    1
     8     2     3    1
     9     3     4    1
    10     5     4    1
    11     5     6    1
    12     6     7    1
    13     7    16    1
    14    16    17    1
    15    17    18   ar
    16    18    19   ar
    17    19    20   ar
    18    20    21   ar
    19    21    23    1
    20    23    24   am
    21    23    25    2
    22    21    22   ar
    23     7     8    1
    24    14    15   ar
    25    15    11   ar
    26     5     1    1
    27    22    17   ar
    28     8     2    1
    29    24    26    1
    30    24    27    1
@<TRIPOS>MOLECULE
*****
 27 30 0 0 0
SMALL
GASTEIGER

@<TRIPOS>ATOM
      1 N         140.4483  143.8457  163.4121 N.3     1  UNL1       -0.2709
      2 C         141.2933  143.9641  162.1784 C.3     1  UNL1        0.0614
      3 C         140.8319  145.1697  161.4145 C.3     1  UNL1        0.0175
      4 C         139.7019  145.7965  162.1761 C.3     1  UNL1        0.0175
      5 C         139.4648  144.9782  163.4107 C.3     1  UNL1        0.0614
      6 C         139.4538  143.9856  164.5482 C.3     1  UNL1        0.0595
      7 C         140.4915  142.9108  164.4139 C.3     1  UNL1        0.1686
      8 C         141.4112  142.9000  163.2290 C.3     1  UNL1        0.0595
      9 C         140.5662  142.7816  164.4627 C.3     1  UNL1        0.1056
     10 C         139.3347  137.7558  163.4118 C.3     1  UNL1        0.0381
     11 C         139.2333  139.1901  163.8387 C.ar    1  UNL1        0.0073
     12 C         138.0050  139.8666  164.3713 C.ar    1  UNL1        0.0024
     13 C         138.3548  141.2944  164.6699 C.ar    1  UNL1        0.0037
     14 C         139.7993  141.5002  164.3218 C.ar    1  UNL1        0.0231
     15 S         140.3422  140.1997  163.8082 S.2     1  UNL1       -0.0942
     16 O         140.6094  141.8467  165.4646 O.3     1  UNL1       -0.4791
     17 C         141.2329  142.1677  166.7906 C.ar    1  UNL1        0.1385
     18 C         142.6962  141.9218  167.0104 C.ar    1  UNL1        0.0369
     19 C         143.3197  142.2429  168.3363 C.ar    1  UNL1        0.0033
     20 C         142.4800  142.8099  169.4423 C.ar    1  UNL1        0.0047
     21 C         141.0168  143.0558  169.2225 C.ar    1  UNL1        0.0561
     22 C         140.3932  142.7347  167.8965 C.ar    1  UNL1        0.0414
     23 C         140.1771  143.6228  170.3286 C.2     1  UNL1        0.2428
     24 N         139.5973  142.7139  171.3715 N.am    1  UNL1       -0.3253
     25 O         139.9172  145.0989  170.3917 O.2     1  UNL1       -0.2704
     26 H         139.7678  141.7452  171.3300 H       1  UNL1        0.1453
     27 H         139.0461  143.0861  172.0974 H       1  UNL1        0.1453
@<TRIPOS>BOND
     1    10    11    1
     2    11    12   ar
     3    12    13   ar
     4    13    14   ar
     5    14     9    1
     6     9     1    1
     7     1     2    1
     8     2     3    1
     9     3     4    1
    10     5     4    1
    11     5     6    1
    12     6     7    1
    13     7    16    1
    14    16    17    1
    15    17    18   ar
    16    18    19   ar
    17    19    20   ar
    18    20    21   ar
    19    21    23    1
    20    23    24   am
    21    23    25    2
    22    21    22   ar
    23     7     8    1
    24    14    15   ar
    25    15    11   ar
    26     5     1    1
    27    22    17   ar
    28     8     2    1
    29    24    26    1
    30    24    27    1
@<TRIPOS>MOLECULE
*****
 27 30 0 0 0
SMALL
GASTEIGER

@<TRIPOS>ATOM
      1 N         141.1280  143.4543  164.7768 N.3     1  UNL1       -0.2709
      2 C         142.3616  143.7440  163.9742 C.3     1  UNL1        0.0614
      3 C         142.0957  144.9607  163.1381 C.3     1  UNL1        0.0175
      4 C         140.6977  145.4230  163.4240 C.3     1  UNL1        0.0175
      5 C         140.0996  144.4920  164.4368 C.3     1  UNL1        0.0614
      6 C         139.7656  143.4157  165.4413 C.3     1  UNL1        0.0595
      7 C         140.8890  142.4508  165.6797 C.3     1  UNL1        0.1686
      8 C         142.1871  142.6149  164.9461 C.3     1  UNL1        0.0595
      9 C         140.9534  142.3253  165.7487 C.3     1  UNL1        0.1056
     10 C         144.0121  142.2984  170.0527 C.3     1  UNL1        0.0381
     11 C         142.8308  142.4626  169.1431 C.ar    1  UNL1        0.0073
     12 C         141.4696  142.9482  169.5449 C.ar    1  UNL1        0.0024
     13 C         140.6006  142.9558  168.3223 C.ar    1  UNL1        0.0037
     14 C         141.4248  142.4750  167.1649 C.ar    1  UNL1        0.0231
     15 S         142.8030  142.1702  167.6722 S.2     1  UNL1       -0.0942
     16 O         140.7144  141.3216  166.6517 O.3     1  UNL1       -0.4791
     17 C         139.9248  140.1085  166.2580 C.ar    1  UNL1        0.1385
     18 C         138.8825  139.5584  167.1859 C.ar    1  UNL1        0.0369
     19 C         138.0930  138.3454  166.7923 C.ar    1  UNL1        0.0033
     20 C         138.3458  137.6823  165.4707 C.ar    1  UNL1        0.0047
     21 C         139.3881  138.2324  164.5429 C.ar    1  UNL1        0.0561
     22 C         140.1776  139.4455  164.9365 C.ar    1  UNL1        0.0414
     23 C         139.6408  137.5694  163.2213 C.2     1  UNL1        0.2428
     24 N         138.5841  137.5912  162.1570 N.am    1  UNL1       -0.3253
     25 O         140.9504  136.8845  162.9641 O.2     1  UNL1       -0.2704
     26 H         137.7246  138.0407  162.3258 H       1  UNL1        0.1453
     27 H         138.7500  137.1560  161.2896 H       1  UNL1        0.1453
@<TRIPOS>BOND
     1    10    11    1
     2    11    12   ar
     3    12    13   ar
     4    13    14   ar
     5    14     9    1
     6     9     1    1
     7     1     2    1
     8     2     3    1
     9     3     4    1
    10     5     4    1
    11     5     6    1
    12     6     7    1
    13     7    16    1
    14    16    17    1
    15    17    18   ar
    16    18    19   ar
    17    19    20   ar
    18    20    21   ar
    19    21    23    1
    20    23    24   am
    21    23    25    2
    22    21    22   ar
    23     7     8    1
    24    14    15   ar
    25    15    11   ar
    26     5     1    1
    27    22    17   ar
    28     8     2    1
    29    24    26    1
    30    24    27    1
