@<TRIPOS>MOLECULE
*****
 29 32 0 0 0
SMALL
GASTEIGER

@<TRIPOS>ATOM
      1 C         141.4889  138.6081  164.8220 C.ar    1  UNL1        0.1488
      2 C         140.9533  137.2676  164.4146 C.ar    1  UNL1        0.0390
      3 C         139.7509  137.1800  163.5222 C.ar    1  UNL1        0.0417
      4 C         139.0839  138.4330  163.0373 C.ar    1  UNL1        0.1640
      5 N         137.8919  138.6587  162.1551 N.ar    1  UNL1       -0.2234
      6 C         137.6908  140.1387  162.0173 C.ar    1  UNL1        0.1197
      7 C         138.7585  140.8278  162.8143 C.ar    1  UNL1        0.1036
      8 N         139.6195  139.7736  163.4447 N.ar    1  UNL1       -0.2096
      9 N         140.8220  139.8612  164.3370 N.ar    1  UNL1       -0.1489
     10 C         138.9344  142.3107  162.9560 C.ar    1  UNL1        0.0201
     11 C         139.4330  143.1210  161.7964 C.ar    1  UNL1        0.0016
     12 C         139.6089  144.6039  161.9381 C.ar    1  UNL1        0.0009
     13 C         139.2862  145.2765  163.2394 C.ar    1  UNL1        0.0114
     14 C         138.7876  144.4661  164.3991 C.ar    1  UNL1        0.0577
     15 CL        138.4648  145.1387  165.7005 Cl      1  UNL1       -0.0822
     16 C         138.6117  142.9832  164.2573 C.ar    1  UNL1        0.0129
     17 N         142.6915  138.6957  165.7144 N.pl3   1  UNL1       -0.3184
     18 H         143.4365  138.0624  165.6000 H       1  UNL1        0.1482
     19 C         142.8936  141.8534  168.9141 C.3     1  UNL1        0.0248
     20 C         142.6552  140.4205  169.2884 C.3     1  UNL1        0.0040
     21 C         142.5878  139.3679  168.2218 C.3     1  UNL1        0.0196
     22 C         142.7588  139.7482  166.7809 C.3     1  UNL1        0.0704
     23 C         142.9972  141.1812  166.4067 C.3     1  UNL1        0.0196
     24 C         143.0646  142.2337  167.4733 C.3     1  UNL1        0.0040
     25 C         144.4405  142.6901  170.1002 C.3     1  UNL1        0.0293
     26 C         142.9610  142.9059  169.9807 C.3     1  UNL1        0.0884
     27 C         141.4814  143.1217  169.8612 C.3     1  UNL1        0.0293
     28 O         143.0284  143.9584  171.0474 O.3     1  UNL1       -0.3867
     29 H         142.1408  144.3169  171.2044 H       1  UNL1        0.2102
@<TRIPOS>BOND
     1    25    26    1
     2    26    27    1
     3    26    28    1
     4    19    26    1
     5    19    20    1
     6    20    21    1
     7    21    22    1
     8    22    17    1
     9    17     1    1
    10     1     2   ar
    11     2     3   ar
    12     3     4   ar
    13     4     5   ar
    14     5     6   ar
    15     6     7   ar
    16     7    10    1
    17    10    11   ar
    18    11    12   ar
    19    12    13   ar
    20    13    14   ar
    21    14    15    1
    22    14    16   ar
    23     7     8   ar
    24     8     9   ar
    25    22    23    1
    26    23    24    1
    27    24    19    1
    28     9     1   ar
    29     8     4   ar
    30    16    10   ar
    31    28    29    1
    32    17    18    1
@<TRIPOS>MOLECULE
*****
 29 32 0 0 0
SMALL
GASTEIGER

@<TRIPOS>ATOM
      1 C         141.5590  138.8847  164.5337 C.ar    1  UNL1        0.1488
      2 C         140.9772  137.5305  164.2550 C.ar    1  UNL1        0.0390
      3 C         139.7348  137.4045  163.4241 C.ar    1  UNL1        0.0417
      4 C         139.0741  138.6328  162.8719 C.ar    1  UNL1        0.1640
      5 N         137.8493  138.8195  162.0263 N.ar    1  UNL1       -0.2234
      6 C         137.6741  140.2891  161.7824 C.ar    1  UNL1        0.1197
      7 C         138.7906  141.0106  162.4772 C.ar    1  UNL1        0.1036
      8 N         139.6559  139.9870  163.1506 N.ar    1  UNL1       -0.2096
      9 N         140.8983  140.1129  163.9815 N.ar    1  UNL1       -0.1489
     10 C         139.0044  142.4952  162.4955 C.ar    1  UNL1        0.0201
     11 C         138.5133  143.3094  163.6557 C.ar    1  UNL1        0.0016
     12 C         138.7271  144.7940  163.6740 C.ar    1  UNL1        0.0009
     13 C         139.4319  145.4644  162.5322 C.ar    1  UNL1        0.0114
     14 C         139.9229  144.6502  161.3721 C.ar    1  UNL1        0.0577
     15 CL        140.6278  145.3206  160.2301 Cl      1  UNL1       -0.0822
     16 C         139.7092  143.1656  161.3537 C.ar    1  UNL1        0.0129
     17 N         142.8015  139.0107  165.3646 N.pl3   1  UNL1       -0.3184
     18 H         143.5887  138.4560  165.1602 H       1  UNL1        0.1482
     19 C         142.9304  141.9240  168.7919 C.3     1  UNL1        0.0248
     20 C         143.2050  142.3967  167.3951 C.3     1  UNL1        0.0040
     21 C         143.1620  141.4255  166.2526 C.3     1  UNL1        0.0196
     22 C         142.8445  139.9818  166.5070 C.3     1  UNL1        0.0704
     23 C         142.5699  139.5092  167.9039 C.3     1  UNL1        0.0196
     24 C         142.6128  140.4803  169.0463 C.3     1  UNL1        0.0040
     25 C         144.4490  142.6652  170.0741 C.3     1  UNL1        0.0293
     26 C         142.9734  142.8951  169.9343 C.3     1  UNL1        0.0884
     27 C         141.4978  143.1250  169.7944 C.3     1  UNL1        0.0293
     28 O         143.0164  143.8662  171.0767 O.3     1  UNL1       -0.3867
     29 H         142.1260  144.2157  171.2377 H       1  UNL1        0.2102
@<TRIPOS>BOND
     1    25    26    1
     2    26    27    1
     3    26    28    1
     4    19    26    1
     5    19    20    1
     6    20    21    1
     7    21    22    1
     8    22    17    1
     9    17     1    1
    10     1     2   ar
    11     2     3   ar
    12     3     4   ar
    13     4     5   ar
    14     5     6   ar
    15     6     7   ar
    16     7    10    1
    17    10    11   ar
    18    11    12   ar
    19    12    13   ar
    20    13    14   ar
    21    14    15    1
    22    14    16   ar
    23     7     8   ar
    24     8     9   ar
    25    22    23    1
    26    23    24    1
    27    24    19    1
    28     9     1   ar
    29     8     4   ar
    30    16    10   ar
    31    28    29    1
    32    17    18    1
@<TRIPOS>MOLECULE
*****
 29 32 0 0 0
SMALL
GASTEIGER

@<TRIPOS>ATOM
      1 C         139.2179  139.8687  168.1475 C.ar    1  UNL1        0.1488
      2 C         138.9634  140.1249  169.6033 C.ar    1  UNL1        0.0390
      3 C         139.9503  140.9164  170.4092 C.ar    1  UNL1        0.0417
      4 C         141.1917  141.4518  169.7592 C.ar    1  UNL1        0.1640
      5 N         142.3366  142.2596  170.2948 N.ar    1  UNL1       -0.2234
      6 C         143.2986  142.5026  169.1699 C.ar    1  UNL1        0.1197
      7 C         142.7483  141.8449  167.9391 C.ar    1  UNL1        0.1036
      8 N         141.4462  141.1955  168.3034 N.ar    1  UNL1       -0.2096
      9 N         140.4593  140.4040  167.4975 N.ar    1  UNL1       -0.1489
     10 C         143.3878  141.8380  166.5823 C.ar    1  UNL1        0.0201
     11 C         143.9563  143.1047  166.0146 C.ar    1  UNL1        0.0016
     12 C         144.5958  143.0977  164.6578 C.ar    1  UNL1        0.0009
     13 C         144.6670  141.8241  163.8687 C.ar    1  UNL1        0.0114
     14 C         144.0985  140.5574  164.4364 C.ar    1  UNL1        0.0577
     15 CL        144.1696  139.2836  163.6472 Cl      1  UNL1       -0.0822
     16 C         143.4590  140.5644  165.7932 C.ar    1  UNL1        0.0129
     17 N         138.2310  139.0771  167.3415 N.pl3   1  UNL1       -0.3184
     18 H         137.4748  138.6323  167.7882 H       1  UNL1        0.1482
     19 C         138.7270  138.7354  162.8820 C.3     1  UNL1        0.0248
     20 C         138.2461  140.0211  163.4868 C.3     1  UNL1        0.0040
     21 C         138.0808  140.1350  164.9734 C.3     1  UNL1        0.0196
     22 C         138.3963  138.9632  165.8550 C.3     1  UNL1        0.0704
     23 C         138.8772  137.6775  165.2501 C.3     1  UNL1        0.0196
     24 C         139.0425  137.5636  163.7637 C.3     1  UNL1        0.0040
     25 C         137.5244  139.2047  161.1987 C.3     1  UNL1        0.0293
     26 C         138.8923  138.6216  161.3955 C.3     1  UNL1        0.0884
     27 C         140.2602  138.0385  161.5923 C.3     1  UNL1        0.0293
     28 O         139.0575  138.5077  159.9089 O.3     1  UNL1       -0.3867
     29 H         139.9272  138.1277  159.7085 H       1  UNL1        0.2102
@<TRIPOS>BOND
     1    25    26    1
     2    26    27    1
     3    26    28    1
     4    19    26    1
     5    19    20    1
     6    20    21    1
     7    21    22    1
     8    22    17    1
     9    17     1    1
    10     1     2   ar
    11     2     3   ar
    12     3     4   ar
    13     4     5   ar
    14     5     6   ar
    15     6     7   ar
    16     7    10    1
    17    10    11   ar
    18    11    12   ar
    19    12    13   ar
    20    13    14   ar
    21    14    15    1
    22    14    16   ar
    23     7     8   ar
    24     8     9   ar
    25    22    23    1
    26    23    24    1
    27    24    19    1
    28     9     1   ar
    29     8     4   ar
    30    16    10   ar
    31    28    29    1
    32    17    18    1
@<TRIPOS>MOLECULE
*****
 29 32 0 0 0
SMALL
GASTEIGER

@<TRIPOS>ATOM
      1 C         139.3339  138.8884  165.6121 C.ar    1  UNL1        0.1488
      2 C         138.5856  137.8050  164.8937 C.ar    1  UNL1        0.0390
      3 C         139.0698  137.3161  163.5608 C.ar    1  UNL1        0.0417
      4 C         140.3022  137.9107  162.9464 C.ar    1  UNL1        0.1640
      5 N         141.0135  137.6339  161.6550 N.ar    1  UNL1       -0.2234
      6 C         142.2014  138.5464  161.5754 C.ar    1  UNL1        0.1197
      7 C         142.2242  139.3870  162.8175 C.ar    1  UNL1        0.1036
      8 N         141.0505  138.9942  163.6648 N.ar    1  UNL1       -0.2096
      9 N         140.5663  139.4830  164.9976 N.ar    1  UNL1       -0.1489
     10 C         143.2421  140.4364  163.1533 C.ar    1  UNL1        0.0201
     11 C         144.6048  140.0330  163.6333 C.ar    1  UNL1        0.0016
     12 C         145.6227  141.0823  163.9691 C.ar    1  UNL1        0.0009
     13 C         145.2780  142.5350  163.8250 C.ar    1  UNL1        0.0114
     14 C         143.9153  142.9384  163.3451 C.ar    1  UNL1        0.0577
     15 CL        143.5705  144.3912  163.2010 Cl      1  UNL1       -0.0822
     16 C         142.8974  141.8891  163.0092 C.ar    1  UNL1        0.0129
     17 N         138.8498  139.3773  166.9450 N.pl3   1  UNL1       -0.3184
     18 H         137.9781  139.0788  167.2919 H       1  UNL1        0.1482
     19 C         141.3817  142.2085  169.3583 C.3     1  UNL1        0.0248
     20 C         141.0977  140.8295  169.8756 C.3     1  UNL1        0.0040
     21 C         140.2537  139.8857  169.0712 C.3     1  UNL1        0.0196
     22 C         139.6937  140.3210  167.7495 C.3     1  UNL1        0.0704
     23 C         139.9778  141.7001  167.2322 C.3     1  UNL1        0.0196
     24 C         140.8217  142.6438  168.0366 C.3     1  UNL1        0.0040
     25 C         141.0430  144.0574  170.3415 C.3     1  UNL1        0.0293
     26 C         142.2256  143.1522  170.1627 C.3     1  UNL1        0.0884
     27 C         143.4082  142.2470  169.9840 C.3     1  UNL1        0.0293
     28 O         143.0696  144.0960  170.9672 O.3     1  UNL1       -0.3867
     29 H         143.9725  143.7475  171.0316 H       1  UNL1        0.2102
@<TRIPOS>BOND
     1    25    26    1
     2    26    27    1
     3    26    28    1
     4    19    26    1
     5    19    20    1
     6    20    21    1
     7    21    22    1
     8    22    17    1
     9    17     1    1
    10     1     2   ar
    11     2     3   ar
    12     3     4   ar
    13     4     5   ar
    14     5     6   ar
    15     6     7   ar
    16     7    10    1
    17    10    11   ar
    18    11    12   ar
    19    12    13   ar
    20    13    14   ar
    21    14    15    1
    22    14    16   ar
    23     7     8   ar
    24     8     9   ar
    25    22    23    1
    26    23    24    1
    27    24    19    1
    28     9     1   ar
    29     8     4   ar
    30    16    10   ar
    31    28    29    1
    32    17    18    1
@<TRIPOS>MOLECULE
*****
 29 32 0 0 0
SMALL
GASTEIGER

@<TRIPOS>ATOM
      1 C         138.9417  142.1718  164.3548 C.ar    1  UNL1        0.1488
      2 C         137.7962  143.1269  164.5150 C.ar    1  UNL1        0.0390
      3 C         137.7482  144.3841  163.6982 C.ar    1  UNL1        0.0417
      4 C         138.8456  144.6861  162.7213 C.ar    1  UNL1        0.1640
      5 N         139.0679  145.8376  161.7858 N.ar    1  UNL1       -0.2234
      6 C         140.3507  145.5940  161.0476 C.ar    1  UNL1        0.1197
      7 C         140.9213  144.2921  161.5268 C.ar    1  UNL1        0.1036
      8 N         139.9911  143.7311  162.5611 N.ar    1  UNL1       -0.2096
      9 N         140.0391  142.4739  163.3779 N.ar    1  UNL1       -0.1489
     10 C         142.1979  143.6619  161.0545 C.ar    1  UNL1        0.0201
     11 C         142.4671  143.5231  159.5853 C.ar    1  UNL1        0.0016
     12 C         143.7437  142.8929  159.1130 C.ar    1  UNL1        0.0009
     13 C         144.7512  142.4016  160.1098 C.ar    1  UNL1        0.0114
     14 C         144.4820  142.5404  161.5789 C.ar    1  UNL1        0.0577
     15 CL        145.4895  142.0490  162.5757 Cl      1  UNL1       -0.0822
     16 C         143.2054  143.1706  162.0512 C.ar    1  UNL1        0.0129
     17 N         138.9897  140.9145  165.1716 N.pl3   1  UNL1       -0.3184
     18 H         138.6011  140.0822  164.8174 H       1  UNL1        0.1482
     19 C         140.9101  140.9472  169.2412 C.3     1  UNL1        0.0248
     20 C         141.2508  142.0133  168.2425 C.3     1  UNL1        0.0040
     21 C         140.6107  142.0024  166.8859 C.3     1  UNL1        0.0196
     22 C         139.6299  140.9255  166.5281 C.3     1  UNL1        0.0704
     23 C         139.2891  139.8593  167.5268 C.3     1  UNL1        0.0196
     24 C         139.9292  139.8702  168.8833 C.3     1  UNL1        0.0040
     25 C         142.4387  139.8213  170.1875 C.3     1  UNL1        0.0293
     26 C         141.5502  140.9581  170.5976 C.3     1  UNL1        0.0884
     27 C         140.6617  142.0949  171.0078 C.3     1  UNL1        0.0293
     28 O         142.1904  140.9690  171.9542 O.3     1  UNL1       -0.3867
     29 H         141.7867  141.6644  172.4967 H       1  UNL1        0.2102
@<TRIPOS>BOND
     1    25    26    1
     2    26    27    1
     3    26    28    1
     4    19    26    1
     5    19    20    1
     6    20    21    1
     7    21    22    1
     8    22    17    1
     9    17     1    1
    10     1     2   ar
    11     2     3   ar
    12     3     4   ar
    13     4     5   ar
    14     5     6   ar
    15     6     7   ar
    16     7    10    1
    17    10    11   ar
    18    11    12   ar
    19    12    13   ar
    20    13    14   ar
    21    14    15    1
    22    14    16   ar
    23     7     8   ar
    24     8     9   ar
    25    22    23    1
    26    23    24    1
    27    24    19    1
    28     9     1   ar
    29     8     4   ar
    30    16    10   ar
    31    28    29    1
    32    17    18    1
@<TRIPOS>MOLECULE
*****
 29 32 0 0 0
SMALL
GASTEIGER

@<TRIPOS>ATOM
      1 C         143.1822  141.4904  164.2556 C.ar    1  UNL1        0.1488
      2 C         144.5488  140.8768  164.3328 C.ar    1  UNL1        0.0390
      3 C         144.8689  139.6548  163.5241 C.ar    1  UNL1        0.0417
      4 C         143.8225  139.0463  162.6382 C.ar    1  UNL1        0.1640
      5 N         143.8462  137.8514  161.7316 N.ar    1  UNL1       -0.2234
      6 C         142.4941  137.7266  161.0941 C.ar    1  UNL1        0.1197
      7 C         141.6350  138.8442  161.6067 C.ar    1  UNL1        0.1036
      8 N         142.4560  139.6598  162.5610 N.ar    1  UNL1       -0.2096
      9 N         142.1358  140.8818  163.3697 N.ar    1  UNL1       -0.1489
     10 C         140.2057  139.1011  161.2310 C.ar    1  UNL1        0.0201
     11 C         139.0969  138.5491  162.0771 C.ar    1  UNL1        0.0016
     12 C         137.6677  138.8060  161.7014 C.ar    1  UNL1        0.0009
     13 C         137.3471  139.6150  160.4796 C.ar    1  UNL1        0.0114
     14 C         138.4558  140.1670  159.6336 C.ar    1  UNL1        0.0577
     15 CL        138.1353  140.9761  158.4117 Cl      1  UNL1       -0.0822
     16 C         139.8851  139.9101  160.0093 C.ar    1  UNL1        0.0129
     17 N         142.8619  142.7125  165.0643 N.pl3   1  UNL1       -0.3184
     18 H         142.9642  143.6070  164.6660 H       1  UNL1        0.1482
     19 C         141.4340  142.2900  169.3108 C.3     1  UNL1        0.0248
     20 C         142.9026  142.2619  169.0071 C.3     1  UNL1        0.0040
     21 C         143.3786  142.4027  167.5916 C.3     1  UNL1        0.0196
     22 C         142.3860  142.5717  166.4798 C.3     1  UNL1        0.0704
     23 C         140.9173  142.5998  166.7835 C.3     1  UNL1        0.0196
     24 C         140.4413  142.4590  168.1990 C.3     1  UNL1        0.0040
     25 C         139.9054  143.1880  170.4756 C.3     1  UNL1        0.0293
     26 C         140.9580  142.1492  170.7262 C.3     1  UNL1        0.0884
     27 C         142.0106  141.1104  170.9768 C.3     1  UNL1        0.0293
     28 O         140.4820  142.0084  172.1418 O.3     1  UNL1       -0.3867
     29 H         141.0211  141.3447  172.5997 H       1  UNL1        0.2102
@<TRIPOS>BOND
     1    25    26    1
     2    26    27    1
     3    26    28    1
     4    19    26    1
     5    19    20    1
     6    20    21    1
     7    21    22    1
     8    22    17    1
     9    17     1    1
    10     1     2   ar
    11     2     3   ar
    12     3     4   ar
    13     4     5   ar
    14     5     6   ar
    15     6     7   ar
    16     7    10    1
    17    10    11   ar
    18    11    12   ar
    19    12    13   ar
    20    13    14   ar
    21    14    15    1
    22    14    16   ar
    23     7     8   ar
    24     8     9   ar
    25    22    23    1
    26    23    24    1
    27    24    19    1
    28     9     1   ar
    29     8     4   ar
    30    16    10   ar
    31    28    29    1
    32    17    18    1
@<TRIPOS>MOLECULE
*****
 29 32 0 0 0
SMALL
GASTEIGER

@<TRIPOS>ATOM
      1 C         142.9429  139.1982  163.1335 C.ar    1  UNL1        0.1488
      2 C         143.1310  138.0557  162.1800 C.ar    1  UNL1        0.0390
      3 C         142.1457  137.8346  161.0708 C.ar    1  UNL1        0.0417
      4 C         140.9724  138.7560  160.9152 C.ar    1  UNL1        0.1640
      5 N         139.8452  138.7875  159.9259 N.ar    1  UNL1       -0.2234
      6 C         138.9605  139.9494  160.2681 C.ar    1  UNL1        0.1197
      7 C         139.5409  140.6361  161.4688 C.ar    1  UNL1        0.1036
      8 N         140.7843  139.8985  161.8687 N.ar    1  UNL1       -0.2096
      9 N         141.7695  140.1196  162.9779 N.ar    1  UNL1       -0.1489
     10 C         138.9769  141.8476  162.1500 C.ar    1  UNL1        0.0201
     11 C         137.9103  141.6931  163.1934 C.ar    1  UNL1        0.0016
     12 C         137.3463  142.9046  163.8746 C.ar    1  UNL1        0.0009
     13 C         137.8489  144.2707  163.5125 C.ar    1  UNL1        0.0114
     14 C         138.9154  144.4253  162.4692 C.ar    1  UNL1        0.0577
     15 CL        139.4180  145.7915  162.1071 Cl      1  UNL1       -0.0822
     16 C         139.4794  143.2138  161.7880 C.ar    1  UNL1        0.0129
     17 N         143.9282  139.4193  164.2428 N.pl3   1  UNL1       -0.3184
     18 H         144.8415  139.0593  164.1690 H       1  UNL1        0.1482
     19 C         142.7093  141.7284  167.9078 C.3     1  UNL1        0.0248
     20 C         142.5309  140.2397  167.8656 C.3     1  UNL1        0.0040
     21 C         142.9372  139.4699  166.6439 C.3     1  UNL1        0.0196
     22 C         143.5219  140.1890  165.4645 C.3     1  UNL1        0.0704
     23 C         143.7003  141.6778  165.5067 C.3     1  UNL1        0.0196
     24 C         143.2940  142.4475  166.7284 C.3     1  UNL1        0.0040
     25 C         140.9267  142.6754  168.5600 C.3     1  UNL1        0.0293
     26 C         142.3030  142.4981  169.1295 C.3     1  UNL1        0.0884
     27 C         143.6793  142.3208  169.6989 C.3     1  UNL1        0.0293
     28 O         141.8966  143.2678  170.3512 O.3     1  UNL1       -0.3867
     29 H         142.6482  143.3257  170.9617 H       1  UNL1        0.2102
@<TRIPOS>BOND
     1    25    26    1
     2    26    27    1
     3    26    28    1
     4    19    26    1
     5    19    20    1
     6    20    21    1
     7    21    22    1
     8    22    17    1
     9    17     1    1
    10     1     2   ar
    11     2     3   ar
    12     3     4   ar
    13     4     5   ar
    14     5     6   ar
    15     6     7   ar
    16     7    10    1
    17    10    11   ar
    18    11    12   ar
    19    12    13   ar
    20    13    14   ar
    21    14    15    1
    22    14    16   ar
    23     7     8   ar
    24     8     9   ar
    25    22    23    1
    26    23    24    1
    27    24    19    1
    28     9     1   ar
    29     8     4   ar
    30    16    10   ar
    31    28    29    1
    32    17    18    1
@<TRIPOS>MOLECULE
*****
 29 32 0 0 0
SMALL
GASTEIGER

@<TRIPOS>ATOM
      1 C         139.0954  139.1170  165.3425 C.ar    1  UNL1        0.1488
      2 C         138.9370  137.8015  164.6395 C.ar    1  UNL1        0.0390
      3 C         139.1434  137.7141  163.1564 C.ar    1  UNL1        0.0417
      4 C         139.5082  138.9423  162.3763 C.ar    1  UNL1        0.1640
      5 N         139.7729  139.1621  160.9162 N.ar    1  UNL1       -0.2234
      6 C         140.0948  140.6135  160.7169 C.ar    1  UNL1        0.1197
      7 C         140.0291  141.2907  162.0538 C.ar    1  UNL1        0.1036
      8 N         139.6665  140.2578  163.0793 N.ar    1  UNL1       -0.2096
      9 N         139.4601  140.3451  164.5624 N.ar    1  UNL1       -0.1489
     10 C         140.2816  142.7453  162.3187 C.ar    1  UNL1        0.0201
     11 C         139.1625  143.7361  162.1918 C.ar    1  UNL1        0.0016
     12 C         139.4150  145.1907  162.4567 C.ar    1  UNL1        0.0009
     13 C         140.7865  145.6548  162.8484 C.ar    1  UNL1        0.0114
     14 C         141.9056  144.6640  162.9752 C.ar    1  UNL1        0.0577
     15 CL        143.2773  145.1280  163.3670 Cl      1  UNL1       -0.0822
     16 C         141.6531  143.2094  162.7104 C.ar    1  UNL1        0.0129
     17 N         138.8890  139.2044  166.8257 N.pl3   1  UNL1       -0.3184
     18 H         138.2305  138.6200  167.2664 H       1  UNL1        0.1482
     19 C         141.2793  142.1378  169.2611 C.3     1  UNL1        0.0248
     20 C         141.6209  141.9062  167.8191 C.3     1  UNL1        0.0040
     21 C         140.8242  140.9283  167.0072 C.3     1  UNL1        0.0196
     22 C         139.6857  140.1822  167.6375 C.3     1  UNL1        0.0704
     23 C         139.3441  140.4139  169.0796 C.3     1  UNL1        0.0196
     24 C         140.1409  141.3917  169.8914 C.3     1  UNL1        0.0040
     25 C         140.8631  143.9866  170.2143 C.3     1  UNL1        0.0293
     26 C         142.0761  143.1156  170.0729 C.3     1  UNL1        0.0884
     27 C         143.2890  142.2446  169.9315 C.3     1  UNL1        0.0293
     28 O         142.8728  144.0935  170.8847 O.3     1  UNL1       -0.3867
     29 H         143.7841  143.7732  170.9735 H       1  UNL1        0.2102
@<TRIPOS>BOND
     1    25    26    1
     2    26    27    1
     3    26    28    1
     4    19    26    1
     5    19    20    1
     6    20    21    1
     7    21    22    1
     8    22    17    1
     9    17     1    1
    10     1     2   ar
    11     2     3   ar
    12     3     4   ar
    13     4     5   ar
    14     5     6   ar
    15     6     7   ar
    16     7    10    1
    17    10    11   ar
    18    11    12   ar
    19    12    13   ar
    20    13    14   ar
    21    14    15    1
    22    14    16   ar
    23     7     8   ar
    24     8     9   ar
    25    22    23    1
    26    23    24    1
    27    24    19    1
    28     9     1   ar
    29     8     4   ar
    30    16    10   ar
    31    28    29    1
    32    17    18    1
@<TRIPOS>MOLECULE
*****
 29 32 0 0 0
SMALL
GASTEIGER

@<TRIPOS>ATOM
      1 C         142.2074  141.7521  167.4155 C.ar    1  UNL1        0.1488
      2 C         142.0278  141.8084  168.9036 C.ar    1  UNL1        0.0390
      3 C         140.8610  141.1174  169.5449 C.ar    1  UNL1        0.0417
      4 C         139.8740  140.3701  168.6980 C.ar    1  UNL1        0.1640
      5 N         138.6358  139.5976  169.0450 N.ar    1  UNL1       -0.2234
      6 C         138.0503  139.0639  167.7714 C.ar    1  UNL1        0.1197
      7 C         138.9266  139.5065  166.6372 C.ar    1  UNL1        0.1036
      8 N         140.0537  140.3137  167.2099 N.ar    1  UNL1       -0.2096
      9 N         141.2204  141.0047  166.5687 N.ar    1  UNL1       -0.1489
     10 C         138.7132  139.1963  165.1852 C.ar    1  UNL1        0.0201
     11 C         139.0011  137.8202  164.6621 C.ar    1  UNL1        0.0016
     12 C         138.7878  137.5100  163.2101 C.ar    1  UNL1        0.0009
     13 C         138.2866  138.5758  162.2812 C.ar    1  UNL1        0.0114
     14 C         137.9987  139.9518  162.8044 C.ar    1  UNL1        0.0577
     15 CL        137.4974  141.0177  161.8754 Cl      1  UNL1       -0.0822
     16 C         138.2120  140.2620  164.2563 C.ar    1  UNL1        0.0129
     17 N         143.3742  142.4431  166.7742 N.pl3   1  UNL1       -0.3184
     18 H         144.1231  142.7614  167.3284 H       1  UNL1        0.1482
     19 C         143.4512  143.0613  162.3176 C.3     1  UNL1        0.0248
     20 C         142.4724  143.8206  163.1632 C.3     1  UNL1        0.0040
     21 C         142.4466  143.6145  164.6488 C.3     1  UNL1        0.0196
     22 C         143.3999  142.6492  165.2887 C.3     1  UNL1        0.0704
     23 C         144.3788  141.8898  164.4430 C.3     1  UNL1        0.0196
     24 C         144.4045  142.0959  162.9574 C.3     1  UNL1        0.0040
     25 C         144.7900  142.5464  160.7547 C.3     1  UNL1        0.0293
     26 C         143.4769  143.2673  160.8320 C.3     1  UNL1        0.0884
     27 C         142.1638  143.9883  160.9094 C.3     1  UNL1        0.0293
     28 O         143.5026  143.4734  159.3464 O.3     1  UNL1       -0.3867
     29 H         142.7076  143.9573  159.0733 H       1  UNL1        0.2102
@<TRIPOS>BOND
     1    25    26    1
     2    26    27    1
     3    26    28    1
     4    19    26    1
     5    19    20    1
     6    20    21    1
     7    21    22    1
     8    22    17    1
     9    17     1    1
    10     1     2   ar
    11     2     3   ar
    12     3     4   ar
    13     4     5   ar
    14     5     6   ar
    15     6     7   ar
    16     7    10    1
    17    10    11   ar
    18    11    12   ar
    19    12    13   ar
    20    13    14   ar
    21    14    15    1
    22    14    16   ar
    23     7     8   ar
    24     8     9   ar
    25    22    23    1
    26    23    24    1
    27    24    19    1
    28     9     1   ar
    29     8     4   ar
    30    16    10   ar
    31    28    29    1
    32    17    18    1
