@<TRIPOS>MOLECULE
*****
 28 31 0 0 0
SMALL
GASTEIGER

@<TRIPOS>ATOM
      1 N         141.5449  142.4530  166.2910 N.pl3   1  UNL1       -0.3192
      2 H         142.4671  142.5762  166.6127 H       1  UNL1        0.1482
      3 C         141.4940  144.9402  160.2444 C.ar    1  UNL1        0.1384
      4 C         140.2427  145.7519  160.4028 C.ar    1  UNL1        0.0366
      5 C         139.5020  145.7415  161.7071 C.ar    1  UNL1       -0.0015
      6 C         140.0127  144.9193  162.8531 C.ar    1  UNL1       -0.0258
      7 C         141.2641  144.1076  162.6947 C.ar    1  UNL1       -0.0215
      8 C         142.0047  144.1181  161.3903 C.ar    1  UNL1        0.0324
      9 C         141.7748  143.2855  163.8407 C.3     1  UNL1        0.0456
     10 C         141.0342  143.2751  165.1450 C.3     1  UNL1        0.0750
     11 C         139.7827  144.0868  165.3033 C.3     1  UNL1        0.0245
     12 C         139.2720  144.9089  164.1574 C.3     1  UNL1        0.0277
     13 C         141.7609  145.8227  157.8154 C.3     1  UNL1        0.2525
     14 O         142.2347  144.9506  158.9401 O.3     1  UNL1       -0.4714
     15 C         140.6504  141.4430  166.9467 C.ar    1  UNL1        0.1342
     16 C         140.5602  141.3803  168.4427 C.ar    1  UNL1        0.0490
     17 C         139.6659  140.3703  169.0985 C.ar    1  UNL1        0.0653
     18 C         139.5757  140.3077  170.5945 C.3     1  UNL1        0.0523
     19 N         138.8617  139.4231  168.2583 N.ar    1  UNL1       -0.2142
     20 C         138.9519  139.4858  166.7623 C.ar    1  UNL1        0.2552
     21 N         138.2834  138.6880  165.6822 N.ar    1  UNL1       -0.1880
     22 C         138.7647  139.2049  164.3589 C.ar    1  UNL1        0.2227
     23 N         139.7305  140.3221  164.6211 N.ar    1  UNL1       -0.1409
     24 N         139.8462  140.4957  166.1065 N.ar    1  UNL1       -0.1816
     25 C         138.3525  138.6941  163.0100 C.3     1  UNL1        0.3163
     26 C         137.9403  138.1834  161.6613 C.3     1  UNL1        0.0805
     27 F         137.5887  139.9614  162.7636 F       1  UNL1       -0.1962
     28 F         139.1163  137.4268  163.2564 F       1  UNL1       -0.1962
@<TRIPOS>BOND
     1    13    14    1
     2    14     3    1
     3     3     4   ar
     4     4     5   ar
     5     5     6   ar
     6     6     7   ar
     7     7     8   ar
     8     7     9    1
     9     9    10    1
    10    10     1    1
    11     1    15    1
    12    15    16   ar
    13    16    17   ar
    14    17    18    1
    15    17    19   ar
    16    19    20   ar
    17    20    21   ar
    18    21    22   ar
    19    22    25    1
    20    25    26    1
    21    25    27    1
    22    25    28    1
    23    22    23   ar
    24    23    24   ar
    25    10    11    1
    26    11    12    1
    27     8     3   ar
    28    24    15   ar
    29    12     6    1
    30    24    20   ar
    31     1     2    1
@<TRIPOS>MOLECULE
*****
 28 31 0 0 0
SMALL
GASTEIGER

@<TRIPOS>ATOM
      1 N         138.4191  138.8702  161.5892 N.pl3   1  UNL1       -0.3192
      2 H         137.7516  138.1621  161.4399 H       1  UNL1        0.1482
      3 C         144.2910  139.6944  164.3443 C.ar    1  UNL1        0.1384
      4 C         144.0507  138.8077  165.5301 C.ar    1  UNL1        0.0366
      5 C         142.7321  138.1109  165.6905 C.ar    1  UNL1       -0.0015
      6 C         141.6538  138.3007  164.6652 C.ar    1  UNL1       -0.0258
      7 C         141.8942  139.1874  163.4795 C.ar    1  UNL1       -0.0215
      8 C         143.2128  139.8842  163.3190 C.ar    1  UNL1        0.0324
      9 C         140.8159  139.3772  162.4541 C.3     1  UNL1        0.0456
     10 C         139.4973  138.6804  162.6145 C.3     1  UNL1        0.0750
     11 C         139.2570  137.7937  163.8003 C.3     1  UNL1        0.0245
     12 C         140.3352  137.6039  164.8256 C.3     1  UNL1        0.0277
     13 C         145.6922  141.6698  163.4040 C.3     1  UNL1        0.2525
     14 O         145.6096  140.3912  164.1839 O.3     1  UNL1       -0.4714
     15 C         138.3578  140.1390  160.7913 C.ar    1  UNL1        0.1342
     16 C         138.3090  140.0811  159.2932 C.ar    1  UNL1        0.0490
     17 C         138.2477  141.3498  158.4952 C.ar    1  UNL1        0.0653
     18 C         138.1989  141.2919  156.9971 C.3     1  UNL1        0.0523
     19 N         138.2353  142.6763  159.1954 N.ar    1  UNL1       -0.2142
     20 C         138.2841  142.7341  160.6935 C.ar    1  UNL1        0.2552
     21 N         138.2851  143.8863  161.6539 N.ar    1  UNL1       -0.1880
     22 C         138.3470  143.3297  163.0454 C.ar    1  UNL1        0.2227
     23 N         138.3842  141.8336  162.9450 N.ar    1  UNL1       -0.1409
     24 N         138.3453  141.4655  161.4914 N.ar    1  UNL1       -0.1816
     25 C         138.3680  144.1289  164.3147 C.3     1  UNL1        0.3163
     26 C         138.3890  144.9282  165.5838 C.3     1  UNL1        0.0805
     27 F         137.3848  143.1778  164.9299 F       1  UNL1       -0.1962
     28 F         139.3513  145.0801  163.6994 F       1  UNL1       -0.1962
@<TRIPOS>BOND
     1    13    14    1
     2    14     3    1
     3     3     4   ar
     4     4     5   ar
     5     5     6   ar
     6     6     7   ar
     7     7     8   ar
     8     7     9    1
     9     9    10    1
    10    10     1    1
    11     1    15    1
    12    15    16   ar
    13    16    17   ar
    14    17    18    1
    15    17    19   ar
    16    19    20   ar
    17    20    21   ar
    18    21    22   ar
    19    22    25    1
    20    25    26    1
    21    25    27    1
    22    25    28    1
    23    22    23   ar
    24    23    24   ar
    25    10    11    1
    26    11    12    1
    27     8     3   ar
    28    24    15   ar
    29    12     6    1
    30    24    20   ar
    31     1     2    1
@<TRIPOS>MOLECULE
*****
 28 31 0 0 0
SMALL
GASTEIGER

@<TRIPOS>ATOM
      1 N         139.5260  144.6303  162.9999 N.pl3   1  UNL1       -0.3192
      2 H         139.1998  145.4833  163.3677 H       1  UNL1        0.1482
      3 C         139.5350  140.0900  167.7047 C.ar    1  UNL1        0.1384
      4 C         138.6129  139.1275  167.0167 C.ar    1  UNL1        0.0366
      5 C         138.0579  139.4581  165.6630 C.ar    1  UNL1       -0.0015
      6 C         138.4249  140.7511  164.9972 C.ar    1  UNL1       -0.0258
      7 C         139.3469  141.7136  165.6852 C.ar    1  UNL1       -0.0215
      8 C         139.9020  141.3831  167.0390 C.ar    1  UNL1        0.0324
      9 C         139.7140  143.0067  165.0194 C.3     1  UNL1        0.0456
     10 C         139.1590  143.3373  163.6657 C.3     1  UNL1        0.0750
     11 C         138.2369  142.3747  162.9777 C.3     1  UNL1        0.0245
     12 C         137.8699  141.0816  163.6434 C.3     1  UNL1        0.0277
     13 C         141.5706  139.8074  169.2942 C.3     1  UNL1        0.2525
     14 O         140.0900  139.7595  169.0585 O.3     1  UNL1       -0.4714
     15 C         140.3900  144.6238  161.7737 C.ar    1  UNL1        0.1342
     16 C         139.8958  145.2526  160.5047 C.ar    1  UNL1        0.0490
     17 C         140.7598  145.2461  159.2785 C.ar    1  UNL1        0.0653
     18 C         140.2656  145.8750  158.0095 C.3     1  UNL1        0.0523
     19 N         142.1179  144.6108  159.3214 N.ar    1  UNL1       -0.2142
     20 C         142.6120  143.9820  160.5904 C.ar    1  UNL1        0.2552
     21 N         143.8961  143.2858  160.9318 N.ar    1  UNL1       -0.1880
     22 C         143.8257  142.8621  162.3690 C.ar    1  UNL1        0.2227
     23 N         142.4982  143.2963  162.9158 N.ar    1  UNL1       -0.1409
     24 N         141.7481  143.9885  161.8166 N.ar    1  UNL1       -0.1816
     25 C         144.8951  142.1322  163.1265 C.3     1  UNL1        0.3163
     26 C         145.9645  141.4023  163.8838 C.3     1  UNL1        0.0805
     27 F         144.8109  143.1493  164.2256 F       1  UNL1       -0.1962
     28 F         144.9794  141.1150  162.0272 F       1  UNL1       -0.1962
@<TRIPOS>BOND
     1    13    14    1
     2    14     3    1
     3     3     4   ar
     4     4     5   ar
     5     5     6   ar
     6     6     7   ar
     7     7     8   ar
     8     7     9    1
     9     9    10    1
    10    10     1    1
    11     1    15    1
    12    15    16   ar
    13    16    17   ar
    14    17    18    1
    15    17    19   ar
    16    19    20   ar
    17    20    21   ar
    18    21    22   ar
    19    22    25    1
    20    25    26    1
    21    25    27    1
    22    25    28    1
    23    22    23   ar
    24    23    24   ar
    25    10    11    1
    26    11    12    1
    27     8     3   ar
    28    24    15   ar
    29    12     6    1
    30    24    20   ar
    31     1     2    1
@<TRIPOS>MOLECULE
*****
 28 31 0 0 0
SMALL
GASTEIGER

@<TRIPOS>ATOM
      1 N         140.7254  141.4225  165.7473 N.pl3   1  UNL1       -0.3192
      2 H         141.3800  141.5480  166.4719 H       1  UNL1        0.1482
      3 C         141.2037  145.0711  160.3428 C.ar    1  UNL1        0.1384
      4 C         140.1663  146.0841  160.7268 C.ar    1  UNL1        0.0366
      5 C         139.4482  145.9623  162.0381 C.ar    1  UNL1       -0.0015
      6 C         139.7675  144.8273  162.9654 C.ar    1  UNL1       -0.0258
      7 C         140.8049  143.8143  162.5814 C.ar    1  UNL1       -0.0215
      8 C         141.5230  143.9361  161.2701 C.ar    1  UNL1        0.0324
      9 C         141.1242  142.6793  163.5087 C.3     1  UNL1        0.0456
     10 C         140.4061  142.5574  164.8200 C.3     1  UNL1        0.0750
     11 C         139.3687  143.5705  165.2040 C.3     1  UNL1        0.0245
     12 C         139.0494  144.7055  164.2767 C.3     1  UNL1        0.0277
     13 C         142.5440  143.9821  158.4018 C.3     1  UNL1        0.2525
     14 O         141.9218  145.1929  159.0315 O.3     1  UNL1       -0.4714
     15 C         140.0474  140.0961  165.5707 C.ar    1  UNL1        0.1342
     16 C         138.9714  139.6709  166.5254 C.ar    1  UNL1        0.0490
     17 C         138.2933  138.3446  166.3488 C.ar    1  UNL1        0.0653
     18 C         137.2173  137.9193  167.3035 C.3     1  UNL1        0.0523
     19 N         138.6913  137.4436  165.2176 N.ar    1  UNL1       -0.2142
     20 C         139.7673  137.8688  164.2629 C.ar    1  UNL1        0.2552
     21 N         140.3671  137.1977  163.0630 N.ar    1  UNL1       -0.1880
     22 C         141.4158  138.1093  162.4980 C.ar    1  UNL1        0.2227
     23 N         141.4642  139.3436  163.3487 N.ar    1  UNL1       -0.1409
     24 N         140.4453  139.1951  164.4395 N.ar    1  UNL1       -0.1816
     25 C         142.2669  137.8346  161.2936 C.3     1  UNL1        0.3163
     26 C         143.1178  137.5599  160.0893 C.3     1  UNL1        0.0805
     27 F         143.4635  137.6553  162.1800 F       1  UNL1       -0.1962
     28 F         141.0702  138.0138  160.4071 F       1  UNL1       -0.1962
@<TRIPOS>BOND
     1    13    14    1
     2    14     3    1
     3     3     4   ar
     4     4     5   ar
     5     5     6   ar
     6     6     7   ar
     7     7     8   ar
     8     7     9    1
     9     9    10    1
    10    10     1    1
    11     1    15    1
    12    15    16   ar
    13    16    17   ar
    14    17    18    1
    15    17    19   ar
    16    19    20   ar
    17    20    21   ar
    18    21    22   ar
    19    22    25    1
    20    25    26    1
    21    25    27    1
    22    25    28    1
    23    22    23   ar
    24    23    24   ar
    25    10    11    1
    26    11    12    1
    27     8     3   ar
    28    24    15   ar
    29    12     6    1
    30    24    20   ar
    31     1     2    1
@<TRIPOS>MOLECULE
*****
 28 31 0 0 0
SMALL
GASTEIGER

@<TRIPOS>ATOM
      1 N         140.9749  142.9350  166.3699 N.pl3   1  UNL1       -0.3192
      2 H         140.7440  143.8485  166.6552 H       1  UNL1        0.1482
      3 C         143.5587  143.1763  160.3685 C.ar    1  UNL1        0.1384
      4 C         144.8619  142.5199  160.7158 C.ar    1  UNL1        0.0366
      5 C         145.1271  142.0777  162.1244 C.ar    1  UNL1       -0.0015
      6 C         144.0891  142.2920  163.1858 C.ar    1  UNL1       -0.0258
      7 C         142.7858  142.9485  162.8385 C.ar    1  UNL1       -0.0215
      8 C         142.5206  143.3906  161.4299 C.ar    1  UNL1        0.0324
      9 C         141.7477  143.1628  163.8999 C.3     1  UNL1        0.0456
     10 C         142.0129  142.7207  165.3085 C.3     1  UNL1        0.0750
     11 C         143.3163  142.0642  165.6557 C.3     1  UNL1        0.0245
     12 C         144.3543  141.8499  164.5944 C.3     1  UNL1        0.0277
     13 C         141.9105  144.0311  158.5512 C.3     1  UNL1        0.2525
     14 O         143.2934  143.6185  158.9599 O.3     1  UNL1       -0.4714
     15 C         140.2888  141.7574  166.9966 C.ar    1  UNL1        0.1342
     16 C         140.3056  141.5852  168.4865 C.ar    1  UNL1        0.0490
     17 C         139.6194  140.4078  169.1132 C.ar    1  UNL1        0.0653
     18 C         139.6363  140.2355  170.6032 C.3     1  UNL1        0.0523
     19 N         138.9165  139.4025  168.2499 N.ar    1  UNL1       -0.2142
     20 C         138.8997  139.5747  166.7599 C.ar    1  UNL1        0.2552
     21 N         138.2925  138.7535  165.6614 N.ar    1  UNL1       -0.1880
     22 C         138.6033  139.4234  164.3558 C.ar    1  UNL1        0.2227
     23 N         139.4026  140.6586  164.6474 N.ar    1  UNL1       -0.1409
     24 N         139.5858  140.7522  166.1333 N.ar    1  UNL1       -0.1816
     25 C         138.1878  138.9424  162.9971 C.3     1  UNL1        0.3163
     26 C         137.7723  138.4614  161.6385 C.3     1  UNL1        0.0805
     27 F         137.4547  140.2304  162.7653 F       1  UNL1       -0.1962
     28 F         138.9208  137.6544  163.2288 F       1  UNL1       -0.1962
@<TRIPOS>BOND
     1    13    14    1
     2    14     3    1
     3     3     4   ar
     4     4     5   ar
     5     5     6   ar
     6     6     7   ar
     7     7     8   ar
     8     7     9    1
     9     9    10    1
    10    10     1    1
    11     1    15    1
    12    15    16   ar
    13    16    17   ar
    14    17    18    1
    15    17    19   ar
    16    19    20   ar
    17    20    21   ar
    18    21    22   ar
    19    22    25    1
    20    25    26    1
    21    25    27    1
    22    25    28    1
    23    22    23   ar
    24    23    24   ar
    25    10    11    1
    26    11    12    1
    27     8     3   ar
    28    24    15   ar
    29    12     6    1
    30    24    20   ar
    31     1     2    1
@<TRIPOS>MOLECULE
*****
 28 31 0 0 0
SMALL
GASTEIGER

@<TRIPOS>ATOM
      1 N         142.7582  143.1779  163.2701 N.pl3   1  UNL1       -0.3192
      2 H         143.5685  143.4578  162.7859 H       1  UNL1        0.1482
      3 C         142.6912  140.4632  169.2179 C.ar    1  UNL1        0.1384
      4 C         142.9098  139.0502  168.7645 C.ar    1  UNL1        0.0366
      5 C         143.0544  138.7453  167.3030 C.ar    1  UNL1       -0.0015
      6 C         142.9804  139.8534  166.2947 C.ar    1  UNL1       -0.0258
      7 C         142.7618  141.2664  166.7481 C.ar    1  UNL1       -0.0215
      8 C         142.6172  141.5713  168.2096 C.ar    1  UNL1        0.0324
      9 C         142.6877  142.3747  165.7398 C.3     1  UNL1        0.0456
     10 C         142.8323  142.0698  164.2783 C.3     1  UNL1        0.0750
     11 C         143.0509  140.6567  163.8250 C.3     1  UNL1        0.0245
     12 C         143.1249  139.5485  164.8332 C.3     1  UNL1        0.0277
     13 C         141.6709  141.9010  171.1262 C.3     1  UNL1        0.2525
     14 O         142.5467  140.7681  170.6794 O.3     1  UNL1       -0.4714
     15 C         141.4497  143.8595  162.9995 C.ar    1  UNL1        0.1342
     16 C         140.4152  143.9536  164.0816 C.ar    1  UNL1        0.0490
     17 C         139.1067  144.6352  163.8111 C.ar    1  UNL1        0.0653
     18 C         138.0722  144.7293  164.8932 C.3     1  UNL1        0.0523
     19 N         138.8327  145.2227  162.4585 N.ar    1  UNL1       -0.2142
     20 C         139.8672  145.1286  161.3763 C.ar    1  UNL1        0.2552
     21 N         139.8804  145.6102  159.9558 N.ar    1  UNL1       -0.1880
     22 C         141.1971  145.2263  159.3484 C.ar    1  UNL1        0.2227
     23 N         141.9976  144.5074  160.3935 N.ar    1  UNL1       -0.1409
     24 N         141.1757  144.4470  161.6469 N.ar    1  UNL1       -0.1816
     25 C         141.6362  145.5112  157.9427 C.3     1  UNL1        0.3163
     26 C         142.0753  145.7960  156.5370 C.3     1  UNL1        0.0805
     27 F         140.4287  146.3779  157.7411 F       1  UNL1       -0.1962
     28 F         142.8437  144.6444  158.1442 F       1  UNL1       -0.1962
@<TRIPOS>BOND
     1    13    14    1
     2    14     3    1
     3     3     4   ar
     4     4     5   ar
     5     5     6   ar
     6     6     7   ar
     7     7     8   ar
     8     7     9    1
     9     9    10    1
    10    10     1    1
    11     1    15    1
    12    15    16   ar
    13    16    17   ar
    14    17    18    1
    15    17    19   ar
    16    19    20   ar
    17    20    21   ar
    18    21    22   ar
    19    22    25    1
    20    25    26    1
    21    25    27    1
    22    25    28    1
    23    22    23   ar
    24    23    24   ar
    25    10    11    1
    26    11    12    1
    27     8     3   ar
    28    24    15   ar
    29    12     6    1
    30    24    20   ar
    31     1     2    1
@<TRIPOS>MOLECULE
*****
 28 31 0 0 0
SMALL
GASTEIGER

@<TRIPOS>ATOM
      1 N         142.8871  137.7420  162.1552 N.pl3   1  UNL1       -0.3192
      2 H         143.5897  137.0882  162.3745 H       1  UNL1        0.1482
      3 C         139.9240  139.7934  167.6106 C.ar    1  UNL1        0.1384
      4 C         138.5490  139.3149  167.2499 C.ar    1  UNL1        0.0366
      5 C         138.3165  138.6174  165.9424 C.ar    1  UNL1       -0.0015
      6 C         139.4591  138.3986  164.9956 C.ar    1  UNL1       -0.0258
      7 C         140.8342  138.8771  165.3563 C.ar    1  UNL1       -0.0215
      8 C         141.0666  139.5745  166.6638 C.ar    1  UNL1        0.0324
      9 C         141.9769  138.6583  164.4095 C.3     1  UNL1        0.0456
     10 C         141.7445  137.9608  163.1020 C.3     1  UNL1        0.0750
     11 C         140.3693  137.4823  162.7413 C.3     1  UNL1        0.0245
     12 C         139.2267  137.7011  163.6881 C.3     1  UNL1        0.0277
     13 C         139.0592  140.5561  169.9388 C.3     1  UNL1        0.2525
     14 O         140.1565  140.4908  168.9181 O.3     1  UNL1       -0.4714
     15 C         142.9592  138.5193  160.8743 C.ar    1  UNL1        0.1342
     16 C         142.8083  137.8135  159.5593 C.ar    1  UNL1        0.0490
     17 C         142.8804  138.5907  158.2784 C.ar    1  UNL1        0.0653
     18 C         142.7295  137.8850  156.9634 C.3     1  UNL1        0.0523
     19 N         143.1033  140.0737  158.3125 N.ar    1  UNL1       -0.2142
     20 C         143.2542  140.7794  159.6275 C.ar    1  UNL1        0.2552
     21 N         143.4817  142.2213  159.9725 N.ar    1  UNL1       -0.1880
     22 C         143.5503  142.3352  161.4665 C.ar    1  UNL1        0.2227
     23 N         143.3651  140.9638  162.0449 N.ar    1  UNL1       -0.1409
     24 N         143.1821  140.0022  160.9084 N.ar    1  UNL1       -0.1816
     25 C         143.7661  143.5989  162.2455 C.3     1  UNL1        0.3163
     26 C         143.9819  144.8625  163.0244 C.3     1  UNL1        0.0805
     27 F         144.9842  142.9983  162.8823 F       1  UNL1       -0.1962
     28 F         142.5480  144.1995  161.6086 F       1  UNL1       -0.1962
@<TRIPOS>BOND
     1    13    14    1
     2    14     3    1
     3     3     4   ar
     4     4     5   ar
     5     5     6   ar
     6     6     7   ar
     7     7     8   ar
     8     7     9    1
     9     9    10    1
    10    10     1    1
    11     1    15    1
    12    15    16   ar
    13    16    17   ar
    14    17    18    1
    15    17    19   ar
    16    19    20   ar
    17    20    21   ar
    18    21    22   ar
    19    22    25    1
    20    25    26    1
    21    25    27    1
    22    25    28    1
    23    22    23   ar
    24    23    24   ar
    25    10    11    1
    26    11    12    1
    27     8     3   ar
    28    24    15   ar
    29    12     6    1
    30    24    20   ar
    31     1     2    1
@<TRIPOS>MOLECULE
*****
 28 31 0 0 0
SMALL
GASTEIGER

@<TRIPOS>ATOM
      1 N         139.1507  139.2851  163.4181 N.pl3   1  UNL1       -0.3192
      2 H         138.3638  138.9130  162.9580 H       1  UNL1        0.1482
      3 C         140.6191  142.2005  169.0833 C.ar    1  UNL1        0.1384
      4 C         139.8003  141.2984  169.9583 C.ar    1  UNL1        0.0366
      5 C         139.0153  140.1740  169.3503 C.ar    1  UNL1       -0.0015
      6 C         139.0491  139.9518  167.8673 C.ar    1  UNL1       -0.0258
      7 C         139.8680  140.8539  166.9923 C.ar    1  UNL1       -0.0215
      8 C         140.6530  141.9782  167.6003 C.ar    1  UNL1        0.0324
      9 C         139.9018  140.6317  165.5091 C.3     1  UNL1        0.0456
     10 C         139.1168  139.5074  164.9011 C.3     1  UNL1        0.0750
     11 C         138.2980  138.6053  165.7762 C.3     1  UNL1        0.0245
     12 C         138.2641  138.8275  167.2593 C.3     1  UNL1        0.0277
     13 C         142.6741  143.0363  170.4355 C.3     1  UNL1        0.2525
     14 O         141.4041  143.3248  169.6913 O.3     1  UNL1       -0.4714
     15 C         140.3834  139.6299  162.6360 C.ar    1  UNL1        0.1342
     16 C         141.3753  138.5595  162.2890 C.ar    1  UNL1        0.0490
     17 C         142.6079  138.9042  161.5069 C.ar    1  UNL1        0.0653
     18 C         143.5998  137.8338  161.1600 C.3     1  UNL1        0.0523
     19 N         142.8487  140.3193  161.0718 N.ar    1  UNL1       -0.2142
     20 C         141.8568  141.3897  161.4187 C.ar    1  UNL1        0.2552
     21 N         141.8252  142.8610  161.1285 N.ar    1  UNL1       -0.1880
     22 C         140.5731  143.4256  161.7313 C.ar    1  UNL1        0.2227
     23 N         139.8308  142.3033  162.3940 N.ar    1  UNL1       -0.1409
     24 N         140.6241  141.0450  162.2008 N.ar    1  UNL1       -0.1816
     25 C         140.1394  144.8607  161.6804 C.3     1  UNL1        0.3163
     26 C         139.7058  146.2957  161.6294 C.3     1  UNL1        0.0805
     27 F         138.9163  144.5195  162.4788 F       1  UNL1       -0.1962
     28 F         141.3625  145.2020  160.8818 F       1  UNL1       -0.1962
@<TRIPOS>BOND
     1    13    14    1
     2    14     3    1
     3     3     4   ar
     4     4     5   ar
     5     5     6   ar
     6     6     7   ar
     7     7     8   ar
     8     7     9    1
     9     9    10    1
    10    10     1    1
    11     1    15    1
    12    15    16   ar
    13    16    17   ar
    14    17    18    1
    15    17    19   ar
    16    19    20   ar
    17    20    21   ar
    18    21    22   ar
    19    22    25    1
    20    25    26    1
    21    25    27    1
    22    25    28    1
    23    22    23   ar
    24    23    24   ar
    25    10    11    1
    26    11    12    1
    27     8     3   ar
    28    24    15   ar
    29    12     6    1
    30    24    20   ar
    31     1     2    1
@<TRIPOS>MOLECULE
*****
 28 31 0 0 0
SMALL
GASTEIGER

@<TRIPOS>ATOM
      1 N         142.7965  137.7228  162.1529 N.pl3   1  UNL1       -0.3192
      2 H         143.2852  136.8683  162.1654 H       1  UNL1        0.1482
      3 C         139.9324  139.8427  167.6350 C.ar    1  UNL1        0.1384
      4 C         138.5492  139.3681  167.3010 C.ar    1  UNL1        0.0366
      5 C         138.2921  138.6594  166.0042 C.ar    1  UNL1       -0.0015
      6 C         139.4182  138.4253  165.0414 C.ar    1  UNL1       -0.0258
      7 C         140.8014  138.8998  165.3754 C.ar    1  UNL1       -0.0215
      8 C         141.0585  139.6085  166.6721 C.ar    1  UNL1        0.0324
      9 C         141.9275  138.6657  164.4125 C.3     1  UNL1        0.0456
     10 C         141.6704  137.9570  163.1157 C.3     1  UNL1        0.0750
     11 C         140.2872  137.4824  162.7818 C.3     1  UNL1        0.0245
     12 C         139.1611  137.7166  163.7446 C.3     1  UNL1        0.0277
     13 C         139.1075  140.6368  169.9671 C.3     1  UNL1        0.2525
     14 O         140.1895  140.5514  168.9317 O.3     1  UNL1       -0.4714
     15 C         143.1780  138.7907  161.1709 C.ar    1  UNL1        0.1342
     16 C         143.6113  140.1404  161.6613 C.ar    1  UNL1        0.0490
     17 C         143.9928  141.2082  160.6795 C.ar    1  UNL1        0.0653
     18 C         144.4262  142.5579  161.1699 C.3     1  UNL1        0.0523
     19 N         143.9409  140.9264  159.2071 N.ar    1  UNL1       -0.2142
     20 C         143.5075  139.5767  158.7167 C.ar    1  UNL1        0.2552
     21 N         143.3590  139.0108  157.3355 N.ar    1  UNL1       -0.1880
     22 C         142.8857  137.5932  157.4638 C.ar    1  UNL1        0.2227
     23 N         142.7418  137.2830  158.9242 N.ar    1  UNL1       -0.1409
     24 N         143.1261  138.5088  159.6986 N.ar    1  UNL1       -0.1816
     25 C         142.6055  136.6512  156.3306 C.3     1  UNL1        0.3163
     26 C         142.3254  135.7092  155.1974 C.3     1  UNL1        0.0805
     27 F         141.1505  136.6454  156.6951 F       1  UNL1       -0.1962
     28 F         144.0606  136.6570  155.9660 F       1  UNL1       -0.1962
@<TRIPOS>BOND
     1    13    14    1
     2    14     3    1
     3     3     4   ar
     4     4     5   ar
     5     5     6   ar
     6     6     7   ar
     7     7     8   ar
     8     7     9    1
     9     9    10    1
    10    10     1    1
    11     1    15    1
    12    15    16   ar
    13    16    17   ar
    14    17    18    1
    15    17    19   ar
    16    19    20   ar
    17    20    21   ar
    18    21    22   ar
    19    22    25    1
    20    25    26    1
    21    25    27    1
    22    25    28    1
    23    22    23   ar
    24    23    24   ar
    25    10    11    1
    26    11    12    1
    27     8     3   ar
    28    24    15   ar
    29    12     6    1
    30    24    20   ar
    31     1     2    1
