@<TRIPOS>MOLECULE
*****
 37 41 0 0 0
SMALL
GASTEIGER

@<TRIPOS>ATOM
      1 N         142.7030  144.2361  163.2728 N.3     1  UNL1       -0.2687
      2 C         142.4922  143.6638  161.9024 C.3     1  UNL1        0.0737
      3 C         141.1058  143.5553  161.3400 C.3     1  UNL1        0.0359
      4 C         139.9303  144.0190  162.1481 C.3     1  UNL1        0.0901
      5 C         140.1411  144.5913  163.5186 C.3     1  UNL1        0.1911
      6 F         138.9655  145.0550  164.3267 F       1  UNL1       -0.2343
      7 C         141.5275  144.6998  164.0809 C.3     1  UNL1        0.1092
      8 N         138.5439  143.9105  161.5858 N.3     1  UNL1       -0.2913
      9 H         138.4789  144.5914  160.8291 H       1  UNL1        0.1236
     10 C         138.0585  142.6027  161.0344 C.3     1  UNL1        0.1152
     11 C         138.2810  141.3351  161.8047 C.ar    1  UNL1        0.0765
     12 C         138.8259  140.1219  161.1112 C.ar    1  UNL1        0.0193
     13 C         139.0484  138.8541  161.8816 C.ar    1  UNL1        0.0411
     14 C         138.7259  138.7997  163.3455 C.ar    1  UNL1        0.1708
     15 C         138.1809  140.0130  164.0390 C.ar    1  UNL1        0.1682
     16 N         137.9585  141.2806  163.2686 N.ar    1  UNL1       -0.2304
     17 N         137.8584  139.9586  165.5029 N.am    1  UNL1       -0.2639
     18 C         138.0809  138.6908  166.2733 C.2     1  UNL1        0.2718
     19 O         137.7584  138.6364  167.7372 O.2     1  UNL1       -0.2707
     20 C         138.6259  137.4776  165.5798 C.3     1  UNL1        0.2898
     21 O         138.9484  137.5320  164.1158 O.3     1  UNL1       -0.4628
     22 H         137.5007  140.7549  165.9581 H       1  UNL1        0.1565
     23 C         144.0894  144.3446  163.8351 C.3     1  UNL1        0.0970
     24 C         144.4979  143.4850  164.9946 C.3     1  UNL1        0.1264
     25 C         141.2948  141.6983  167.6018 C.ar    1  UNL1        0.1593
     26 C         141.0373  140.2210  167.5675 C.ar    1  UNL1        0.1357
     27 N         141.8475  139.3392  166.6642 N.ar    1  UNL1       -0.2392
     28 C         142.9152  139.9347  165.7951 C.ar    1  UNL1        0.0975
     29 C         143.7254  139.0530  164.8918 C.ar    1  UNL1        0.0255
     30 C         144.7931  139.6485  164.0227 C.ar    1  UNL1        0.0623
     31 C         145.0506  141.1259  164.0570 C.ar    1  UNL1        0.2611
     32 O         146.1183  141.7214  163.1879 O.2     1  UNL1       -0.2670
     33 N         144.2404  142.0077  164.9603 N.ar    1  UNL1       -0.2926
     34 C         143.1727  141.4120  165.8294 C.ar    1  UNL1        0.0832
     35 C         142.3624  142.2938  166.7327 C.ar    1  UNL1        0.0573
     36 C         141.1276  143.2267  169.6961 C.3     1  UNL1        0.2525
     37 O         140.4845  142.5801  168.5052 O.3     1  UNL1       -0.4698
@<TRIPOS>BOND
     1    36    37    1
     2    37    25    1
     3    25    26   ar
     4    26    27   ar
     5    27    28   ar
     6    28    29   ar
     7    29    30   ar
     8    30    31   ar
     9    31    32    2
    10    31    33   ar
    11    33    24    1
    12    24    23    1
    13    23     1    1
    14     1     2    1
    15     2     3    1
    16     3     4    1
    17     4     8    1
    18     8    10    1
    19    10    11    1
    20    11    12   ar
    21    12    13   ar
    22    13    14   ar
    23    14    15   ar
    24    15    16   ar
    25    15    17    1
    26    17    18   am
    27    18    19    2
    28    18    20    1
    29    20    21    1
    30     4     5    1
    31     5     6    1
    32     5     7    1
    33    33    34   ar
    34    34    35   ar
    35    35    25   ar
    36    34    28   ar
    37     7     1    1
    38    16    11   ar
    39    21    14    1
    40     8     9    1
    41    17    22    1
@<TRIPOS>MOLECULE
*****
 37 41 0 0 0
SMALL
GASTEIGER

@<TRIPOS>ATOM
      1 N         137.8786  142.8709  163.2554 N.3     1  UNL1       -0.2687
      2 C         137.8907  142.5477  161.7907 C.3     1  UNL1        0.0737
      3 C         137.9114  141.1177  161.3384 C.3     1  UNL1        0.0359
      4 C         137.9199  140.0109  162.3508 C.3     1  UNL1        0.0901
      5 C         137.9079  140.3342  163.8155 C.3     1  UNL1        0.1911
      6 F         137.9164  139.2274  164.8279 F       1  UNL1       -0.2343
      7 C         137.8872  141.7642  164.2678 C.3     1  UNL1        0.1092
      8 N         137.9406  138.5809  161.8985 N.3     1  UNL1       -0.2913
      9 H         137.3414  138.5238  161.0751 H       1  UNL1        0.1236
     10 C         139.2411  137.9283  161.5338 C.3     1  UNL1        0.1152
     11 C         140.4622  138.1701  162.3707 C.ar    1  UNL1        0.0765
     12 C         140.6569  137.4116  163.6500 C.ar    1  UNL1        0.0193
     13 C         141.8780  137.6534  164.4869 C.ar    1  UNL1        0.0411
     14 C         142.9044  138.6538  164.0444 C.ar    1  UNL1        0.1708
     15 C         142.7097  139.4123  162.7651 C.ar    1  UNL1        0.1682
     16 N         141.4886  139.1705  161.9282 N.ar    1  UNL1       -0.2304
     17 N         143.7361  140.4127  162.3226 N.am    1  UNL1       -0.2639
     18 C         144.9572  140.6545  163.1595 C.2     1  UNL1        0.2718
     19 O         145.9836  141.6549  162.7171 O.2     1  UNL1       -0.2707
     20 C         145.1520  139.8959  164.4388 C.3     1  UNL1        0.2898
     21 O         144.1256  138.8956  164.8813 O.3     1  UNL1       -0.4628
     22 H         143.6083  140.9106  161.4830 H       1  UNL1        0.1565
     23 C         137.8580  144.3010  163.7077 C.3     1  UNL1        0.0970
     24 C         138.9247  144.8112  164.6306 C.3     1  UNL1        0.1264
     25 C         141.0366  141.9388  167.3763 C.ar    1  UNL1        0.1593
     26 C         142.4733  141.5850  167.1302 C.ar    1  UNL1        0.1357
     27 N         143.2061  142.1887  165.9689 N.ar    1  UNL1       -0.2392
     28 C         142.5022  143.1461  165.0537 C.ar    1  UNL1        0.0975
     29 C         143.2350  143.7498  163.8924 C.ar    1  UNL1        0.0255
     30 C         142.5310  144.7073  162.9772 C.ar    1  UNL1        0.0623
     31 C         141.0942  145.0611  163.2233 C.ar    1  UNL1        0.2611
     32 O         140.3903  146.0186  162.3080 O.2     1  UNL1       -0.2670
     33 N         140.3614  144.4574  164.3845 N.ar    1  UNL1       -0.2926
     34 C         141.0654  143.4999  165.2998 C.ar    1  UNL1        0.0832
     35 C         140.3327  142.8963  166.4611 C.ar    1  UNL1        0.0573
     36 C         140.6527  141.7427  169.9384 C.3     1  UNL1        0.2525
     37 O         140.3038  141.3351  168.5376 O.3     1  UNL1       -0.4698
@<TRIPOS>BOND
     1    36    37    1
     2    37    25    1
     3    25    26   ar
     4    26    27   ar
     5    27    28   ar
     6    28    29   ar
     7    29    30   ar
     8    30    31   ar
     9    31    32    2
    10    31    33   ar
    11    33    24    1
    12    24    23    1
    13    23     1    1
    14     1     2    1
    15     2     3    1
    16     3     4    1
    17     4     8    1
    18     8    10    1
    19    10    11    1
    20    11    12   ar
    21    12    13   ar
    22    13    14   ar
    23    14    15   ar
    24    15    16   ar
    25    15    17    1
    26    17    18   am
    27    18    19    2
    28    18    20    1
    29    20    21    1
    30     4     5    1
    31     5     6    1
    32     5     7    1
    33    33    34   ar
    34    34    35   ar
    35    35    25   ar
    36    34    28   ar
    37     7     1    1
    38    16    11   ar
    39    21    14    1
    40     8     9    1
    41    17    22    1
@<TRIPOS>MOLECULE
*****
 37 41 0 0 0
SMALL
GASTEIGER

@<TRIPOS>ATOM
      1 N         141.5831  138.5943  164.4982 N.3     1  UNL1       -0.2687
      2 C         142.7440  138.7916  165.4274 C.3     1  UNL1        0.0737
      3 C         144.0147  139.4061  164.9200 C.3     1  UNL1        0.0359
      4 C         144.1246  139.8233  163.4834 C.3     1  UNL1        0.0901
      5 C         142.9637  139.6260  162.5542 C.3     1  UNL1        0.1911
      6 F         143.0737  140.0432  161.1175 F       1  UNL1       -0.2343
      7 C         141.6930  139.0115  163.0616 C.3     1  UNL1        0.1092
      8 N         145.3954  140.4378  162.9759 N.3     1  UNL1       -0.2913
      9 H         145.4607  140.2035  161.9854 H       1  UNL1        0.1236
     10 C         145.6084  141.9186  163.0856 C.3     1  UNL1        0.1152
     11 C         144.4360  142.8518  163.0200 C.ar    1  UNL1        0.0765
     12 C         143.9145  143.4901  164.2733 C.ar    1  UNL1        0.0193
     13 C         142.7420  144.4234  164.2077 C.ar    1  UNL1        0.0411
     14 C         142.0911  144.7184  162.8889 C.ar    1  UNL1        0.1708
     15 C         142.6127  144.0802  161.6357 C.ar    1  UNL1        0.1682
     16 N         143.7851  143.1469  161.7012 N.ar    1  UNL1       -0.2304
     17 N         141.9617  144.3752  160.3169 N.am    1  UNL1       -0.2639
     18 C         140.7892  145.3085  160.2513 C.2     1  UNL1        0.2718
     19 O         140.1383  145.6036  158.9325 O.2     1  UNL1       -0.2707
     20 C         140.2677  145.9468  161.5046 C.3     1  UNL1        0.2898
     21 O         140.9186  145.6517  162.8234 O.3     1  UNL1       -0.4628
     22 H         142.3040  143.9563  159.4943 H       1  UNL1        0.1565
     23 C         140.3123  137.9798  165.0057 C.3     1  UNL1        0.0970
     24 C         139.3443  138.8062  165.7995 C.3     1  UNL1        0.1264
     25 C         137.7722  141.4150  162.4869 C.ar    1  UNL1        0.1593
     26 C         137.9412  142.9036  162.5603 C.ar    1  UNL1        0.1357
     27 N         138.6341  143.5227  163.7379 N.ar    1  UNL1       -0.2392
     28 C         139.1582  142.6531  164.8420 C.ar    1  UNL1        0.0975
     29 C         139.8511  143.2722  166.0195 C.ar    1  UNL1        0.0255
     30 C         140.3752  142.4026  167.1237 C.ar    1  UNL1        0.0623
     31 C         140.2062  140.9139  167.0504 C.ar    1  UNL1        0.2611
     32 O         140.7303  140.0443  168.1545 O.2     1  UNL1       -0.2670
     33 N         139.5133  140.2948  165.8728 N.ar    1  UNL1       -0.2926
     34 C         138.9892  141.1645  164.7686 C.ar    1  UNL1        0.0832
     35 C         138.2963  140.5454  163.5911 C.ar    1  UNL1        0.0573
     36 C         137.7613  139.7190  160.5189 C.3     1  UNL1        0.2525
     37 O         137.0793  140.7959  161.3094 O.3     1  UNL1       -0.4698
@<TRIPOS>BOND
     1    36    37    1
     2    37    25    1
     3    25    26   ar
     4    26    27   ar
     5    27    28   ar
     6    28    29   ar
     7    29    30   ar
     8    30    31   ar
     9    31    32    2
    10    31    33   ar
    11    33    24    1
    12    24    23    1
    13    23     1    1
    14     1     2    1
    15     2     3    1
    16     3     4    1
    17     4     8    1
    18     8    10    1
    19    10    11    1
    20    11    12   ar
    21    12    13   ar
    22    13    14   ar
    23    14    15   ar
    24    15    16   ar
    25    15    17    1
    26    17    18   am
    27    18    19    2
    28    18    20    1
    29    20    21    1
    30     4     5    1
    31     5     6    1
    32     5     7    1
    33    33    34   ar
    34    34    35   ar
    35    35    25   ar
    36    34    28   ar
    37     7     1    1
    38    16    11   ar
    39    21    14    1
    40     8     9    1
    41    17    22    1
@<TRIPOS>MOLECULE
*****
 37 41 0 0 0
SMALL
GASTEIGER

@<TRIPOS>ATOM
      1 N         144.5201  140.1097  163.3980 N.3     1  UNL1       -0.2687
      2 C         144.0677  139.9885  161.9730 C.3     1  UNL1        0.0737
      3 C         142.9586  139.0438  161.6159 C.3     1  UNL1        0.0359
      4 C         142.3020  138.2203  162.6839 C.3     1  UNL1        0.0901
      5 C         142.7544  138.3416  164.1090 C.3     1  UNL1        0.1911
      6 F         142.0976  137.5180  165.1770 F       1  UNL1       -0.2343
      7 C         143.8634  139.2863  164.4660 C.3     1  UNL1        0.1092
      8 N         141.1929  137.2755  162.3270 N.3     1  UNL1       -0.2913
      9 H         141.3586  136.4157  162.8501 H       1  UNL1        0.1236
     10 C         139.7661  137.6657  162.5760 C.3     1  UNL1        0.1152
     11 C         139.3257  139.0819  162.3519 C.ar    1  UNL1        0.0765
     12 C         139.2437  139.6301  160.9581 C.ar    1  UNL1        0.0193
     13 C         138.8033  141.0464  160.7339 C.ar    1  UNL1        0.0411
     14 C         138.4450  141.9145  161.9035 C.ar    1  UNL1        0.1708
     15 C         138.5270  141.3662  163.2974 C.ar    1  UNL1        0.1682
     16 N         138.9674  139.9500  163.5215 N.ar    1  UNL1       -0.2304
     17 N         138.1687  142.2343  164.4670 N.am    1  UNL1       -0.2639
     18 C         137.7284  143.6506  164.2428 C.2     1  UNL1        0.2718
     19 O         137.3700  144.5187  165.4125 O.2     1  UNL1       -0.2707
     20 C         137.6463  144.1988  162.8490 C.3     1  UNL1        0.2898
     21 O         138.0046  143.3307  161.6794 O.3     1  UNL1       -0.4628
     22 H         138.2226  141.8745  165.3818 H       1  UNL1        0.1565
     23 C         145.6292  141.0545  163.7549 C.3     1  UNL1        0.0970
     24 C         145.3099  142.4047  164.3250 C.3     1  UNL1        0.1264
     25 C         142.2662  141.8632  167.5950 C.ar    1  UNL1        0.1593
     26 C         140.8887  142.4362  167.4398 C.ar    1  UNL1        0.1357
     27 N         140.5258  143.1896  166.1946 N.ar    1  UNL1       -0.2392
     28 C         141.5403  143.3702  165.1046 C.ar    1  UNL1        0.0975
     29 C         141.1773  144.1236  163.8594 C.ar    1  UNL1        0.0255
     30 C         142.1918  144.3041  162.7694 C.ar    1  UNL1        0.0623
     31 C         143.5694  143.7312  162.9246 C.ar    1  UNL1        0.2611
     32 O         144.5839  143.9117  161.8346 O.2     1  UNL1       -0.2670
     33 N         143.9324  142.9777  164.1698 N.ar    1  UNL1       -0.2926
     34 C         142.9178  142.7972  165.2598 C.ar    1  UNL1        0.0832
     35 C         143.2808  142.0437  166.5050 C.ar    1  UNL1        0.0573
     36 C         142.4234  139.6254  168.9055 C.3     1  UNL1        0.2525
     37 O         142.6292  141.1097  168.8402 O.3     1  UNL1       -0.4698
@<TRIPOS>BOND
     1    36    37    1
     2    37    25    1
     3    25    26   ar
     4    26    27   ar
     5    27    28   ar
     6    28    29   ar
     7    29    30   ar
     8    30    31   ar
     9    31    32    2
    10    31    33   ar
    11    33    24    1
    12    24    23    1
    13    23     1    1
    14     1     2    1
    15     2     3    1
    16     3     4    1
    17     4     8    1
    18     8    10    1
    19    10    11    1
    20    11    12   ar
    21    12    13   ar
    22    13    14   ar
    23    14    15   ar
    24    15    16   ar
    25    15    17    1
    26    17    18   am
    27    18    19    2
    28    18    20    1
    29    20    21    1
    30     4     5    1
    31     5     6    1
    32     5     7    1
    33    33    34   ar
    34    34    35   ar
    35    35    25   ar
    36    34    28   ar
    37     7     1    1
    38    16    11   ar
    39    21    14    1
    40     8     9    1
    41    17    22    1
@<TRIPOS>MOLECULE
*****
 37 41 0 0 0
SMALL
GASTEIGER

@<TRIPOS>ATOM
      1 N         142.6024  144.1964  160.6789 N.3     1  UNL1       -0.2687
      2 C         143.3571  143.1378  159.9307 C.3     1  UNL1        0.0737
      3 C         144.4112  142.3320  160.6304 C.3     1  UNL1        0.0359
      4 C         144.7106  142.5850  162.0783 C.3     1  UNL1        0.0901
      5 C         143.9559  143.6436  162.8264 C.3     1  UNL1        0.1911
      6 F         144.2554  143.8966  164.2743 F       1  UNL1       -0.2343
      7 C         142.9018  144.4494  162.1267 C.3     1  UNL1        0.1092
      8 N         145.7647  141.7792  162.7781 N.3     1  UNL1       -0.2913
      9 H         146.3706  142.4428  163.2607 H       1  UNL1        0.1236
     10 C         145.3693  140.7413  163.7862 C.3     1  UNL1        0.1152
     11 C         144.1044  139.9573  163.5988 C.ar    1  UNL1        0.0765
     12 C         144.0485  138.8556  162.5824 C.ar    1  UNL1        0.0193
     13 C         142.7836  138.0715  162.3949 C.ar    1  UNL1        0.0411
     14 C         141.5745  138.3891  163.2240 C.ar    1  UNL1        0.1708
     15 C         141.6304  139.4908  164.2405 C.ar    1  UNL1        0.1682
     16 N         142.8954  140.2748  164.4279 N.ar    1  UNL1       -0.2304
     17 N         140.4214  139.8084  165.0695 N.am    1  UNL1       -0.2639
     18 C         139.1564  139.0243  164.8821 C.2     1  UNL1        0.2718
     19 O         137.9473  139.3419  165.7111 O.2     1  UNL1       -0.2707
     20 C         139.1005  137.9226  163.8656 C.3     1  UNL1        0.2898
     21 O         140.3096  137.6050  163.0366 O.3     1  UNL1       -0.4628
     22 H         140.4580  140.5314  165.7366 H       1  UNL1        0.1565
     23 C         141.5483  145.0022  159.9791 C.3     1  UNL1        0.0970
     24 C         140.1727  144.4346  159.7900 C.3     1  UNL1        0.1264
     25 C         138.3343  140.3287  159.8953 C.ar    1  UNL1        0.1593
     26 C         137.5308  139.8970  161.0862 C.ar    1  UNL1        0.1357
     27 N         137.3402  140.8340  162.2419 N.ar    1  UNL1       -0.2392
     28 C         137.9530  142.2026  162.2068 C.ar    1  UNL1        0.0975
     29 C         137.7624  143.1396  163.3625 C.ar    1  UNL1        0.0255
     30 C         138.3752  144.5083  163.3274 C.ar    1  UNL1        0.0623
     31 C         139.1787  144.9400  162.1366 C.ar    1  UNL1        0.2611
     32 O         139.7915  146.3086  162.1015 O.2     1  UNL1       -0.2670
     33 N         139.3693  144.0030  160.9808 N.ar    1  UNL1       -0.2926
     34 C         138.7564  142.6343  161.0160 C.ar    1  UNL1        0.0832
     35 C         138.9471  141.6973  159.8602 C.ar    1  UNL1        0.0573
     36 C         139.0110  139.9163  157.4211 C.3     1  UNL1        0.2525
     37 O         138.5249  139.3917  158.7396 O.3     1  UNL1       -0.4698
@<TRIPOS>BOND
     1    36    37    1
     2    37    25    1
     3    25    26   ar
     4    26    27   ar
     5    27    28   ar
     6    28    29   ar
     7    29    30   ar
     8    30    31   ar
     9    31    32    2
    10    31    33   ar
    11    33    24    1
    12    24    23    1
    13    23     1    1
    14     1     2    1
    15     2     3    1
    16     3     4    1
    17     4     8    1
    18     8    10    1
    19    10    11    1
    20    11    12   ar
    21    12    13   ar
    22    13    14   ar
    23    14    15   ar
    24    15    16   ar
    25    15    17    1
    26    17    18   am
    27    18    19    2
    28    18    20    1
    29    20    21    1
    30     4     5    1
    31     5     6    1
    32     5     7    1
    33    33    34   ar
    34    34    35   ar
    35    35    25   ar
    36    34    28   ar
    37     7     1    1
    38    16    11   ar
    39    21    14    1
    40     8     9    1
    41    17    22    1
@<TRIPOS>MOLECULE
*****
 37 41 0 0 0
SMALL
GASTEIGER

@<TRIPOS>ATOM
      1 N         141.3050  138.3012  163.6538 N.3     1  UNL1       -0.2687
      2 C         141.5100  138.8991  162.2935 C.3     1  UNL1        0.0737
      3 C         142.8093  139.5684  161.9565 C.3     1  UNL1        0.0359
      4 C         143.9036  139.6399  162.9798 C.3     1  UNL1        0.0901
      5 C         143.6986  139.0420  164.3402 C.3     1  UNL1        0.1911
      6 F         144.7931  139.1135  165.3635 F       1  UNL1       -0.2343
      7 C         142.3993  138.3726  164.6771 C.3     1  UNL1        0.1092
      8 N         145.2031  140.3093  162.6429 N.3     1  UNL1       -0.2913
      9 H         145.3284  140.2184  161.6347 H       1  UNL1        0.1236
     10 C         145.4094  141.7572  162.9761 C.3     1  UNL1        0.1152
     11 C         144.2387  142.6946  163.0038 C.ar    1  UNL1        0.0765
     12 C         143.7089  143.1942  164.3152 C.ar    1  UNL1        0.0193
     13 C         142.5382  144.1316  164.3429 C.ar    1  UNL1        0.0411
     14 C         141.8974  144.5695  163.0593 C.ar    1  UNL1        0.1708
     15 C         142.4273  144.0698  161.7479 C.ar    1  UNL1        0.1682
     16 N         143.5979  143.1324  161.7202 N.ar    1  UNL1       -0.2304
     17 N         141.7865  144.5077  160.4643 N.am    1  UNL1       -0.2639
     18 C         140.6158  145.4451  160.4921 C.2     1  UNL1        0.2718
     19 O         139.9750  145.8830  159.2085 O.2     1  UNL1       -0.2707
     20 C         140.0860  145.9447  161.8034 C.3     1  UNL1        0.2898
     21 O         140.7268  145.5069  163.0870 O.3     1  UNL1       -0.4628
     22 H         142.1343  144.1798  159.6036 H       1  UNL1        0.1565
     23 C         140.0055  137.6318  163.9907 C.3     1  UNL1        0.0970
     24 C         138.9372  138.3918  164.7195 C.3     1  UNL1        0.1264
     25 C         140.6986  140.6705  168.1771 C.ar    1  UNL1        0.1593
     26 C         140.7027  142.1703  168.1626 C.ar    1  UNL1        0.1357
     27 N         140.1197  142.9107  166.9956 N.ar    1  UNL1       -0.2392
     28 C         139.5326  142.1512  165.8431 C.ar    1  UNL1        0.0975
     29 C         138.9495  142.8916  164.6760 C.ar    1  UNL1        0.0255
     30 C         138.3624  142.1320  163.5235 C.ar    1  UNL1        0.0623
     31 C         138.3583  140.6321  163.5380 C.ar    1  UNL1        0.2611
     32 O         137.7712  139.8725  162.3854 O.2     1  UNL1       -0.2670
     33 N         138.9413  139.8917  164.7050 N.ar    1  UNL1       -0.2926
     34 C         139.5284  140.6513  165.8576 C.ar    1  UNL1        0.0832
     35 C         140.1114  139.9109  167.0246 C.ar    1  UNL1        0.0573
     36 C         142.6004  139.2292  169.2047 C.3     1  UNL1        0.2525
     37 O         141.2816  139.9301  169.3442 O.3     1  UNL1       -0.4698
@<TRIPOS>BOND
     1    36    37    1
     2    37    25    1
     3    25    26   ar
     4    26    27   ar
     5    27    28   ar
     6    28    29   ar
     7    29    30   ar
     8    30    31   ar
     9    31    32    2
    10    31    33   ar
    11    33    24    1
    12    24    23    1
    13    23     1    1
    14     1     2    1
    15     2     3    1
    16     3     4    1
    17     4     8    1
    18     8    10    1
    19    10    11    1
    20    11    12   ar
    21    12    13   ar
    22    13    14   ar
    23    14    15   ar
    24    15    16   ar
    25    15    17    1
    26    17    18   am
    27    18    19    2
    28    18    20    1
    29    20    21    1
    30     4     5    1
    31     5     6    1
    32     5     7    1
    33    33    34   ar
    34    34    35   ar
    35    35    25   ar
    36    34    28   ar
    37     7     1    1
    38    16    11   ar
    39    21    14    1
    40     8     9    1
    41    17    22    1
@<TRIPOS>MOLECULE
*****
 37 41 0 0 0
SMALL
GASTEIGER

@<TRIPOS>ATOM
      1 N         140.7594  140.2832  160.5941 N.3     1  UNL1       -0.2687
      2 C         141.5658  141.5451  160.6794 C.3     1  UNL1        0.0737
      3 C         142.9537  141.5113  161.2475 C.3     1  UNL1        0.0359
      4 C         143.5351  140.2155  161.7302 C.3     1  UNL1        0.0901
      5 C         142.7286  138.9536  161.6448 C.3     1  UNL1        0.1911
      6 F         143.3101  137.6579  162.1276 F       1  UNL1       -0.2343
      7 C         141.3408  138.9875  161.0768 C.3     1  UNL1        0.1092
      8 N         144.9230  140.1816  162.2983 N.3     1  UNL1       -0.2913
      9 H         145.5149  140.7148  161.6614 H       1  UNL1        0.1236
     10 C         145.1821  140.7125  163.6770 C.3     1  UNL1        0.1152
     11 C         144.1781  140.4874  164.7684 C.ar    1  UNL1        0.0765
     12 C         143.8816  139.0944  165.2390 C.ar    1  UNL1        0.0193
     13 C         142.8774  138.8692  166.3304 C.ar    1  UNL1        0.0411
     14 C         142.1699  140.0371  166.9512 C.ar    1  UNL1        0.1708
     15 C         142.4665  141.4302  166.4806 C.ar    1  UNL1        0.1682
     16 N         143.4705  141.6553  165.3892 N.ar    1  UNL1       -0.2304
     17 N         141.7590  142.5981  167.1013 N.am    1  UNL1       -0.2639
     18 C         140.7548  142.3730  168.1928 C.2     1  UNL1        0.2718
     19 O         140.0473  143.5409  168.8136 O.2     1  UNL1       -0.2707
     20 C         140.4583  140.9799  168.6634 C.3     1  UNL1        0.2898
     21 O         141.1658  139.8120  168.0426 O.3     1  UNL1       -0.4628
     22 H         141.9536  143.5124  166.7925 H       1  UNL1        0.1565
     23 C         139.3715  140.3171  160.0260 C.3     1  UNL1        0.0970
     24 C         138.1967  140.5486  160.9295 C.3     1  UNL1        0.1264
     25 C         138.8478  144.5158  162.9513 C.ar    1  UNL1        0.1593
     26 C         139.0449  144.5770  164.4370 C.ar    1  UNL1        0.1357
     27 N         139.0250  143.3158  165.2488 N.ar    1  UNL1       -0.2392
     28 C         138.8080  141.9934  164.5749 C.ar    1  UNL1        0.0975
     29 C         138.7880  140.7322  165.3867 C.ar    1  UNL1        0.0255
     30 C         138.5710  139.4099  164.7128 C.ar    1  UNL1        0.0623
     31 C         138.3739  139.3486  163.2270 C.ar    1  UNL1        0.2611
     32 O         138.1569  138.0263  162.5531 O.2     1  UNL1       -0.2670
     33 N         138.3938  140.6098  162.4152 N.ar    1  UNL1       -0.2926
     34 C         138.6109  141.9322  163.0892 C.ar    1  UNL1        0.0832
     35 C         138.6308  143.1934  162.2774 C.ar    1  UNL1        0.0573
     36 C         139.9636  146.0096  161.1421 C.3     1  UNL1        0.2525
     37 O         138.8678  145.7770  162.1395 O.3     1  UNL1       -0.4698
@<TRIPOS>BOND
     1    36    37    1
     2    37    25    1
     3    25    26   ar
     4    26    27   ar
     5    27    28   ar
     6    28    29   ar
     7    29    30   ar
     8    30    31   ar
     9    31    32    2
    10    31    33   ar
    11    33    24    1
    12    24    23    1
    13    23     1    1
    14     1     2    1
    15     2     3    1
    16     3     4    1
    17     4     8    1
    18     8    10    1
    19    10    11    1
    20    11    12   ar
    21    12    13   ar
    22    13    14   ar
    23    14    15   ar
    24    15    16   ar
    25    15    17    1
    26    17    18   am
    27    18    19    2
    28    18    20    1
    29    20    21    1
    30     4     5    1
    31     5     6    1
    32     5     7    1
    33    33    34   ar
    34    34    35   ar
    35    35    25   ar
    36    34    28   ar
    37     7     1    1
    38    16    11   ar
    39    21    14    1
    40     8     9    1
    41    17    22    1
@<TRIPOS>MOLECULE
*****
 37 41 0 0 0
SMALL
GASTEIGER

@<TRIPOS>ATOM
      1 N         142.8242  141.4005  166.9936 N.3     1  UNL1       -0.2687
      2 C         143.3678  142.0753  165.7692 C.3     1  UNL1        0.0737
      3 C         144.0417  141.2642  164.7025 C.3     1  UNL1        0.0359
      4 C         144.1720  139.7782  164.8602 C.3     1  UNL1        0.0901
      5 C         143.6284  139.1034  166.0846 C.3     1  UNL1        0.1911
      6 F         143.7588  137.6174  166.2423 F       1  UNL1       -0.2343
      7 C         142.9545  139.9146  167.1513 C.3     1  UNL1        0.1092
      8 N         144.8460  138.9670  163.7935 N.3     1  UNL1       -0.2913
      9 H         145.0298  138.0474  164.1949 H       1  UNL1        0.1236
     10 C         144.1592  138.7367  162.4801 C.3     1  UNL1        0.1152
     11 C         142.6736  138.5345  162.4358 C.ar    1  UNL1        0.0765
     12 C         142.0067  137.6499  163.4472 C.ar    1  UNL1        0.0193
     13 C         140.5210  137.4476  163.4030 C.ar    1  UNL1        0.0411
     14 C         139.7023  138.1299  162.3475 C.ar    1  UNL1        0.1708
     15 C         140.3692  139.0145  161.3361 C.ar    1  UNL1        0.1682
     16 N         141.8548  139.2167  161.3803 N.ar    1  UNL1       -0.2304
     17 N         139.5504  139.6967  160.2806 N.am    1  UNL1       -0.2639
     18 C         138.0648  139.4944  160.2364 C.2     1  UNL1        0.2718
     19 O         137.2460  140.1767  159.1809 O.2     1  UNL1       -0.2707
     20 C         137.3979  138.6099  161.2477 C.3     1  UNL1        0.2898
     21 O         138.2167  137.9276  162.3032 O.3     1  UNL1       -0.4628
     22 H         139.9881  140.2773  159.6168 H       1  UNL1        0.1565
     23 C         142.1503  142.2118  168.0603 C.3     1  UNL1        0.0970
     24 C         140.6537  142.3065  168.0974 C.3     1  UNL1        0.1264
     25 C         139.5828  143.4763  163.8862 C.ar    1  UNL1        0.1593
     26 C         138.7519  142.5572  163.0407 C.ar    1  UNL1        0.1357
     27 N         138.2780  141.2481  163.5990 N.ar    1  UNL1       -0.2392
     28 C         138.6350  140.8581  165.0027 C.ar    1  UNL1        0.0975
     29 C         138.1611  139.5490  165.5610 C.ar    1  UNL1        0.0255
     30 C         138.5181  139.1590  166.9647 C.ar    1  UNL1        0.0623
     31 C         139.3490  140.0782  167.8102 C.ar    1  UNL1        0.2611
     32 O         139.7059  139.6882  169.2140 O.2     1  UNL1       -0.2670
     33 N         139.8229  141.3873  167.2520 N.ar    1  UNL1       -0.2926
     34 C         139.4659  141.7772  165.8482 C.ar    1  UNL1        0.0832
     35 C         139.9397  143.0864  165.2899 C.ar    1  UNL1        0.0573
     36 C         141.4724  145.2277  163.5516 C.3     1  UNL1        0.2525
     37 O         140.0567  144.7854  163.3279 O.3     1  UNL1       -0.4698
@<TRIPOS>BOND
     1    36    37    1
     2    37    25    1
     3    25    26   ar
     4    26    27   ar
     5    27    28   ar
     6    28    29   ar
     7    29    30   ar
     8    30    31   ar
     9    31    32    2
    10    31    33   ar
    11    33    24    1
    12    24    23    1
    13    23     1    1
    14     1     2    1
    15     2     3    1
    16     3     4    1
    17     4     8    1
    18     8    10    1
    19    10    11    1
    20    11    12   ar
    21    12    13   ar
    22    13    14   ar
    23    14    15   ar
    24    15    16   ar
    25    15    17    1
    26    17    18   am
    27    18    19    2
    28    18    20    1
    29    20    21    1
    30     4     5    1
    31     5     6    1
    32     5     7    1
    33    33    34   ar
    34    34    35   ar
    35    35    25   ar
    36    34    28   ar
    37     7     1    1
    38    16    11   ar
    39    21    14    1
    40     8     9    1
    41    17    22    1
@<TRIPOS>MOLECULE
*****
 37 41 0 0 0
SMALL
GASTEIGER

@<TRIPOS>ATOM
      1 N         144.1606  139.5027  163.7106 N.3     1  UNL1       -0.2687
      2 C         143.9046  139.0397  162.3070 C.3     1  UNL1        0.0737
      3 C         142.6670  138.2535  161.9906 C.3     1  UNL1        0.0359
      4 C         141.6854  137.9303  163.0779 C.3     1  UNL1        0.0901
      5 C         141.9415  138.3933  164.4814 C.3     1  UNL1        0.1911
      6 F         140.9599  138.0700  165.5687 F       1  UNL1       -0.2343
      7 C         143.1791  139.1795  164.7978 C.3     1  UNL1        0.1092
      8 N         140.4477  137.1441  162.7615 N.3     1  UNL1       -0.2913
      9 H         140.5335  136.2516  163.2479 H       1  UNL1        0.1236
     10 C         139.0979  137.6985  163.1086 C.3     1  UNL1        0.1152
     11 C         138.7840  139.1384  162.8293 C.ar    1  UNL1        0.0765
     12 C         138.3539  139.5594  161.4554 C.ar    1  UNL1        0.0193
     13 C         138.0401  140.9994  161.1761 C.ar    1  UNL1        0.0411
     14 C         138.1564  142.0184  162.2707 C.ar    1  UNL1        0.1708
     15 C         138.5865  141.5973  163.6447 C.ar    1  UNL1        0.1682
     16 N         138.9003  140.1573  163.9240 N.ar    1  UNL1       -0.2304
     17 N         138.7028  142.6162  164.7394 N.am    1  UNL1       -0.2639
     18 C         138.3890  144.0562  164.4600 C.2     1  UNL1        0.2718
     19 O         138.5053  145.0751  165.5547 O.2     1  UNL1       -0.2707
     20 C         137.9589  144.4772  163.0861 C.3     1  UNL1        0.2898
     21 O         137.8426  143.4583  161.9915 O.3     1  UNL1       -0.4628
     22 H         138.9851  142.3399  165.6411 H       1  UNL1        0.1565
     23 C         145.3983  140.2890  164.0270 C.3     1  UNL1        0.0970
     24 C         145.5106  141.7193  163.5892 C.3     1  UNL1        0.1264
     25 C         144.1958  142.7065  159.4003 C.ar    1  UNL1        0.1593
     26 C         142.9568  143.5215  159.1756 C.ar    1  UNL1        0.1357
     27 N         142.1560  144.0074  160.3471 N.ar    1  UNL1       -0.2392
     28 C         142.5943  143.6784  161.7434 C.ar    1  UNL1        0.0975
     29 C         141.7935  144.1644  162.9150 C.ar    1  UNL1        0.0255
     30 C         142.2317  143.8353  164.3112 C.ar    1  UNL1        0.0623
     31 C         143.4708  143.0203  164.5360 C.ar    1  UNL1        0.2611
     32 O         143.9090  142.6912  165.9323 O.2     1  UNL1       -0.2670
     33 N         144.2716  142.5343  163.3645 N.ar    1  UNL1       -0.2926
     34 C         143.8333  142.8634  161.9681 C.ar    1  UNL1        0.0832
     35 C         144.6341  142.3774  160.7965 C.ar    1  UNL1        0.0573
     36 C         144.4076  142.2591  156.8498 C.3     1  UNL1        0.2525
     37 O         144.9966  142.2205  158.2287 O.3     1  UNL1       -0.4698
@<TRIPOS>BOND
     1    36    37    1
     2    37    25    1
     3    25    26   ar
     4    26    27   ar
     5    27    28   ar
     6    28    29   ar
     7    29    30   ar
     8    30    31   ar
     9    31    32    2
    10    31    33   ar
    11    33    24    1
    12    24    23    1
    13    23     1    1
    14     1     2    1
    15     2     3    1
    16     3     4    1
    17     4     8    1
    18     8    10    1
    19    10    11    1
    20    11    12   ar
    21    12    13   ar
    22    13    14   ar
    23    14    15   ar
    24    15    16   ar
    25    15    17    1
    26    17    18   am
    27    18    19    2
    28    18    20    1
    29    20    21    1
    30     4     5    1
    31     5     6    1
    32     5     7    1
    33    33    34   ar
    34    34    35   ar
    35    35    25   ar
    36    34    28   ar
    37     7     1    1
    38    16    11   ar
    39    21    14    1
    40     8     9    1
    41    17    22    1
