@<TRIPOS>MOLECULE
*****
 30 33 0 0 0
SMALL
GASTEIGER

@<TRIPOS>ATOM
      1 C         138.1978  139.6858  160.1214 C.3     1  UNL1        0.1326
      2 C         139.4950  138.9406  160.0127 C.3     1  UNL1        0.0473
      3 C         140.0790  138.8232  161.3893 C.3     1  UNL1        0.0643
      4 N         139.1426  139.4959  162.3489 N.3     1  UNL1       -0.2727
      5 C         137.9800  140.0290  161.5653 C.3     1  UNL1        0.1020
      6 C         139.3352  139.6147  163.8317 C.3     1  UNL1        0.0609
      7 C         138.7150  138.6052  164.7518 C.3     1  UNL1        0.0375
      8 C         138.9075  138.7239  166.2345 C.3     1  UNL1        0.0950
      9 N         139.7202  139.8522  166.7974 N.pl3   1  UNL1       -0.2785
     10 C         140.3403  140.8616  165.8774 C.3     1  UNL1        0.0950
     11 C         140.1478  140.7429  164.3945 C.3     1  UNL1        0.0375
     12 C         139.9127  139.9709  168.2803 C.ar    1  UNL1        0.2163
     13 N         141.2100  140.2440  168.9818 N.ar    1  UNL1       -0.1804
     14 C         140.9409  140.2792  170.4571 C.ar    1  UNL1        0.2331
     15 N         141.9570  140.5230  171.5332 N.pl3   1  UNL1       -0.3262
     16 N         139.4770  140.0279  170.6672 N.ar    1  UNL1       -0.1354
     17 N         138.8416  139.8374  169.3219 N.ar    1  UNL1       -0.2450
     18 H         142.8993  140.6788  171.2943 H       1  UNL1        0.1452
     19 H         141.6816  140.5271  172.4784 H       1  UNL1        0.1452
     20 H         137.8888  139.6565  169.1523 H       1  UNL1        0.1919
     21 C         137.7692  140.8870  157.8578 C.3     1  UNL1        0.1741
     22 O         137.2795  140.0278  158.9857 O.3     1  UNL1       -0.3521
     23 C         141.3722  138.1512  161.7441 C.3     1  UNL1        0.0424
     24 C         142.5288  138.9660  162.2425 C.ar    1  UNL1       -0.0208
     25 C         143.1100  138.6924  163.5981 C.ar    1  UNL1       -0.0034
     26 C         144.2666  139.5072  164.0965 C.ar    1  UNL1        0.0111
     27 C         144.8420  140.5955  163.2394 C.ar    1  UNL1        0.0577
     28 CL        145.9985  141.4103  163.7379 Cl      1  UNL1       -0.0822
     29 C         144.2608  140.8690  161.8840 C.ar    1  UNL1        0.0111
     30 C         143.1042  140.0543  161.3855 C.ar    1  UNL1       -0.0034
@<TRIPOS>BOND
     1    21    22    1
     2     1    22    1
     3     1     2    1
     4     2     3    1
     5     3    23    1
     6    23    24    1
     7    24    25   ar
     8    25    26   ar
     9    26    27   ar
    10    27    28    1
    11    27    29   ar
    12    29    30   ar
    13     3     4    1
    14     4     6    1
    15     6     7    1
    16     7     8    1
    17     8     9    1
    18     9    12    1
    19    12    13   ar
    20    13    14   ar
    21    14    15    1
    22    14    16   ar
    23    16    17   ar
    24     9    10    1
    25    10    11    1
    26     4     5    1
    27     5     1    1
    28    30    24   ar
    29    11     6    1
    30    17    12   ar
    31    15    18    1
    32    15    19    1
    33    17    20    1
@<TRIPOS>MOLECULE
*****
 30 33 0 0 0
SMALL
GASTEIGER

@<TRIPOS>ATOM
      1 C         142.6160  140.3912  168.8769 C.3     1  UNL1        0.1326
      2 C         142.7797  139.1384  168.0684 C.3     1  UNL1        0.0473
      3 C         142.5539  139.4845  166.6265 C.3     1  UNL1        0.0643
      4 N         142.2507  140.9512  166.5438 N.3     1  UNL1       -0.2727
      5 C         142.2891  141.5116  167.9346 C.3     1  UNL1        0.1020
      6 C         141.9602  141.7222  165.2904 C.3     1  UNL1        0.0609
      7 C         140.5557  142.1480  164.9803 C.3     1  UNL1        0.0375
      8 C         140.2651  142.9189  163.7269 C.3     1  UNL1        0.0950
      9 N         141.3791  143.2641  162.7834 N.pl3   1  UNL1       -0.2785
     10 C         142.7835  142.8383  163.0935 C.3     1  UNL1        0.0950
     11 C         143.0741  142.0673  164.3470 C.3     1  UNL1        0.0375
     12 C         141.0885  144.0351  161.5299 C.ar    1  UNL1        0.2163
     13 N         142.1023  144.5082  160.5309 N.ar    1  UNL1       -0.1804
     14 C         141.3735  145.2338  159.4389 C.ar    1  UNL1        0.2331
     15 N         141.9991  145.8721  158.2342 N.pl3   1  UNL1       -0.3262
     16 N         139.9092  145.2092  159.7633 N.ar    1  UNL1       -0.1354
     17 N         139.7330  144.4684  161.0556 N.ar    1  UNL1       -0.2450
     18 H         142.9749  145.8352  158.1085 H       1  UNL1        0.1452
     19 H         141.4340  146.3277  157.5692 H       1  UNL1        0.1452
     20 H         138.8779  144.2966  161.5122 H       1  UNL1        0.1919
     21 C         141.8282  141.3934  171.1408 C.3     1  UNL1        0.1741
     22 O         142.7549  140.5039  170.3663 O.3     1  UNL1       -0.3521
     23 C         142.6197  138.5312  165.4703 C.3     1  UNL1        0.0424
     24 C         141.4307  138.3579  164.5725 C.ar    1  UNL1       -0.0208
     25 C         141.6267  138.1486  163.1001 C.ar    1  UNL1       -0.0034
     26 C         140.4377  137.9753  162.2023 C.ar    1  UNL1        0.0111
     27 C         139.0525  138.0112  162.7769 C.ar    1  UNL1        0.0577
     28 CL        137.8634  137.8378  161.8791 Cl      1  UNL1       -0.0822
     29 C         138.8565  138.2204  164.2492 C.ar    1  UNL1        0.0111
     30 C         140.0455  138.3938  165.1470 C.ar    1  UNL1       -0.0034
@<TRIPOS>BOND
     1    21    22    1
     2     1    22    1
     3     1     2    1
     4     2     3    1
     5     3    23    1
     6    23    24    1
     7    24    25   ar
     8    25    26   ar
     9    26    27   ar
    10    27    28    1
    11    27    29   ar
    12    29    30   ar
    13     3     4    1
    14     4     6    1
    15     6     7    1
    16     7     8    1
    17     8     9    1
    18     9    12    1
    19    12    13   ar
    20    13    14   ar
    21    14    15    1
    22    14    16   ar
    23    16    17   ar
    24     9    10    1
    25    10    11    1
    26     4     5    1
    27     5     1    1
    28    30    24   ar
    29    11     6    1
    30    17    12   ar
    31    15    18    1
    32    15    19    1
    33    17    20    1
@<TRIPOS>MOLECULE
*****
 30 33 0 0 0
SMALL
GASTEIGER

@<TRIPOS>ATOM
      1 C         141.2008  144.4991  160.8249 C.3     1  UNL1        0.1326
      2 C         139.8190  143.9171  160.7795 C.3     1  UNL1        0.0473
      3 C         139.5993  143.1453  162.0467 C.3     1  UNL1        0.0643
      4 N         140.8452  143.2502  162.8754 N.3     1  UNL1       -0.2727
      5 C         141.8350  144.0869  162.1203 C.3     1  UNL1        0.1020
      6 C         141.0631  142.6278  164.2226 C.3     1  UNL1        0.0609
      7 C         140.5370  143.3027  165.4546 C.3     1  UNL1        0.0375
      8 C         140.7549  142.6803  166.8018 C.3     1  UNL1        0.0950
      9 N         141.4988  141.3828  166.9171 N.pl3   1  UNL1       -0.2785
     10 C         142.0248  140.7079  165.6852 C.3     1  UNL1        0.0950
     11 C         141.8070  141.3303  164.3379 C.3     1  UNL1        0.0375
     12 C         141.7167  140.7604  168.2644 C.ar    1  UNL1        0.2163
     13 N         143.0318  140.6325  168.9742 N.ar    1  UNL1       -0.1804
     14 C         142.7857  139.9497  170.2869 C.ar    1  UNL1        0.2331
     15 N         143.8244  139.6190  171.3173 N.pl3   1  UNL1       -0.3262
     16 N         141.3182  139.6556  170.3883 N.ar    1  UNL1       -0.1354
     17 N         140.6576  140.1566  169.1384 N.ar    1  UNL1       -0.2450
     18 H         144.7673  139.8537  171.1587 H       1  UNL1        0.1452
     19 H         143.5633  139.1673  172.1522 H       1  UNL1        0.1452
     20 H         139.6974  140.0993  168.9284 H       1  UNL1        0.1919
     21 C         141.2354  145.4009  158.3886 C.3     1  UNL1        0.1741
     22 O         141.8367  145.3447  159.7617 O.3     1  UNL1       -0.3521
     23 C         138.3525  142.3995  162.4198 C.3     1  UNL1        0.0424
     24 C         138.4489  141.1106  163.1810 C.ar    1  UNL1       -0.0208
     25 C         138.0594  141.0637  164.6289 C.ar    1  UNL1       -0.0034
     26 C         138.1559  139.7748  165.3901 C.ar    1  UNL1        0.0111
     27 C         138.6418  138.5328  164.7034 C.ar    1  UNL1        0.0577
     28 CL        138.7383  137.2439  165.4646 Cl      1  UNL1       -0.0822
     29 C         139.0313  138.5797  163.2557 C.ar    1  UNL1        0.0111
     30 C         138.9348  139.8686  162.4945 C.ar    1  UNL1       -0.0034
@<TRIPOS>BOND
     1    21    22    1
     2     1    22    1
     3     1     2    1
     4     2     3    1
     5     3    23    1
     6    23    24    1
     7    24    25   ar
     8    25    26   ar
     9    26    27   ar
    10    27    28    1
    11    27    29   ar
    12    29    30   ar
    13     3     4    1
    14     4     6    1
    15     6     7    1
    16     7     8    1
    17     8     9    1
    18     9    12    1
    19    12    13   ar
    20    13    14   ar
    21    14    15    1
    22    14    16   ar
    23    16    17   ar
    24     9    10    1
    25    10    11    1
    26     4     5    1
    27     5     1    1
    28    30    24   ar
    29    11     6    1
    30    17    12   ar
    31    15    18    1
    32    15    19    1
    33    17    20    1
@<TRIPOS>MOLECULE
*****
 30 33 0 0 0
SMALL
GASTEIGER

@<TRIPOS>ATOM
      1 C         141.1048  144.7285  160.2862 C.3     1  UNL1        0.1326
      2 C         139.8817  143.8786  160.1085 C.3     1  UNL1        0.0473
      3 C         139.4814  143.3550  161.4559 C.3     1  UNL1        0.0643
      4 N         140.4570  143.8814  162.4664 N.3     1  UNL1       -0.2727
      5 C         141.4604  144.7303  161.7435 C.3     1  UNL1        0.1020
      6 C         140.4335  143.6070  163.9409 C.3     1  UNL1        0.0609
      7 C         139.4528  144.3232  164.8215 C.3     1  UNL1        0.0375
      8 C         139.4293  144.0489  166.2959 C.3     1  UNL1        0.0950
      9 N         140.3864  143.0583  166.8899 N.pl3   1  UNL1       -0.2785
     10 C         141.3671  142.3422  166.0094 C.3     1  UNL1        0.0950
     11 C         141.3906  142.6165  164.5348 C.3     1  UNL1        0.0375
     12 C         140.3629  142.7840  168.3645 C.ar    1  UNL1        0.2163
     13 N         140.4897  141.4374  169.0128 N.ar    1  UNL1       -0.1804
     14 C         140.4135  141.6292  170.4986 C.ar    1  UNL1        0.2331
     15 N         140.4967  140.5460  171.5329 N.pl3   1  UNL1       -0.3262
     16 N         140.2396  143.0945  170.7684 N.ar    1  UNL1       -0.1354
     17 N         140.2083  143.8082  169.4494 N.ar    1  UNL1       -0.2450
     18 H         140.6118  139.6084  171.2556 H       1  UNL1        0.1452
     19 H         140.4361  140.7727  172.4890 H       1  UNL1        0.1452
     20 H         140.1046  144.7784  169.3188 H       1  UNL1        0.1919
     21 C         142.2313  144.7223  157.9450 C.3     1  UNL1        0.1741
     22 O         141.8427  145.4501  159.1977 O.3     1  UNL1       -0.3521
     23 C         138.3109  142.4618  161.7426 C.3     1  UNL1        0.0424
     24 C         138.4948  141.2289  162.5768 C.ar    1  UNL1       -0.0208
     25 C         137.9205  141.1674  163.9612 C.ar    1  UNL1       -0.0034
     26 C         138.1044  139.9345  164.7954 C.ar    1  UNL1        0.0111
     27 C         138.8628  138.7629  164.2453 C.ar    1  UNL1        0.0577
     28 CL        139.0468  137.5300  165.0796 Cl      1  UNL1       -0.0822
     29 C         139.4371  138.8244  162.8610 C.ar    1  UNL1        0.0111
     30 C         139.2532  140.0574  162.0268 C.ar    1  UNL1       -0.0034
@<TRIPOS>BOND
     1    21    22    1
     2     1    22    1
     3     1     2    1
     4     2     3    1
     5     3    23    1
     6    23    24    1
     7    24    25   ar
     8    25    26   ar
     9    26    27   ar
    10    27    28    1
    11    27    29   ar
    12    29    30   ar
    13     3     4    1
    14     4     6    1
    15     6     7    1
    16     7     8    1
    17     8     9    1
    18     9    12    1
    19    12    13   ar
    20    13    14   ar
    21    14    15    1
    22    14    16   ar
    23    16    17   ar
    24     9    10    1
    25    10    11    1
    26     4     5    1
    27     5     1    1
    28    30    24   ar
    29    11     6    1
    30    17    12   ar
    31    15    18    1
    32    15    19    1
    33    17    20    1
@<TRIPOS>MOLECULE
*****
 30 33 0 0 0
SMALL
GASTEIGER

@<TRIPOS>ATOM
      1 C         140.6819  140.6414  168.6416 C.3     1  UNL1        0.1326
      2 C         139.5183  139.8580  168.1102 C.3     1  UNL1        0.0473
      3 C         139.2533  140.3159  166.7067 C.3     1  UNL1        0.0643
      4 N         140.2531  141.3825  166.3705 N.3     1  UNL1       -0.2727
      5 C         141.1360  141.5837  167.5664 C.3     1  UNL1        0.1020
      6 C         140.3525  142.1186  165.0674 C.3     1  UNL1        0.0609
      7 C         139.4117  143.2486  164.7706 C.3     1  UNL1        0.0375
      8 C         139.5111  143.9847  163.4675 C.3     1  UNL1        0.0950
      9 N         140.5513  143.5908  162.4611 N.pl3   1  UNL1       -0.2785
     10 C         141.4921  142.4609  162.7578 C.3     1  UNL1        0.0950
     11 C         141.3927  141.7247  164.0610 C.3     1  UNL1        0.0375
     12 C         140.6507  144.3270  161.1579 C.ar    1  UNL1        0.2163
     13 N         141.8970  144.5162  160.3451 N.ar    1  UNL1       -0.1804
     14 C         141.5379  145.3094  159.1236 C.ar    1  UNL1        0.2331
     15 N         142.4814  145.7280  158.0352 N.pl3   1  UNL1       -0.3262
     16 N         140.0695  145.6103  159.1816 N.ar    1  UNL1       -0.1354
     17 N         139.5212  145.0032  160.4389 N.ar    1  UNL1       -0.2450
     18 H         143.4330  145.4811  158.0867 H       1  UNL1        0.1452
     19 H         142.1490  146.2498  157.2693 H       1  UNL1        0.1452
     20 H         138.5845  145.0418  160.7394 H       1  UNL1        0.1919
     21 C         140.8854  141.4523  171.1015 C.3     1  UNL1        0.1741
     22 O         141.2853  140.5064  170.0082 O.3     1  UNL1       -0.3521
     23 C         138.1774  139.7983  165.7987 C.3     1  UNL1        0.0424
     24 C         138.5157  139.3759  164.3997 C.ar    1  UNL1       -0.0208
     25 C         137.9411  140.1212  163.2316 C.ar    1  UNL1       -0.0034
     26 C         138.2794  139.6988  161.8326 C.ar    1  UNL1        0.0111
     27 C         139.1922  138.5311  161.6017 C.ar    1  UNL1        0.0577
     28 CL        139.5305  138.1087  160.2028 Cl      1  UNL1       -0.0822
     29 C         139.7667  137.7858  162.7698 C.ar    1  UNL1        0.0111
     30 C         139.4285  138.2082  164.1688 C.ar    1  UNL1       -0.0034
@<TRIPOS>BOND
     1    21    22    1
     2     1    22    1
     3     1     2    1
     4     2     3    1
     5     3    23    1
     6    23    24    1
     7    24    25   ar
     8    25    26   ar
     9    26    27   ar
    10    27    28    1
    11    27    29   ar
    12    29    30   ar
    13     3     4    1
    14     4     6    1
    15     6     7    1
    16     7     8    1
    17     8     9    1
    18     9    12    1
    19    12    13   ar
    20    13    14   ar
    21    14    15    1
    22    14    16   ar
    23    16    17   ar
    24     9    10    1
    25    10    11    1
    26     4     5    1
    27     5     1    1
    28    30    24   ar
    29    11     6    1
    30    17    12   ar
    31    15    18    1
    32    15    19    1
    33    17    20    1
@<TRIPOS>MOLECULE
*****
 30 33 0 0 0
SMALL
GASTEIGER

@<TRIPOS>ATOM
      1 C         138.2460  139.2587  166.8525 C.3     1  UNL1        0.1326
      2 C         139.3976  139.8574  167.6044 C.3     1  UNL1        0.0473
      3 C         140.0770  140.8448  166.7025 C.3     1  UNL1        0.0643
      4 N         139.3452  140.8564  165.3931 N.3     1  UNL1       -0.2727
      5 C         138.2136  139.8762  165.4858 C.3     1  UNL1        0.1020
      6 C         139.6853  141.7001  164.2005 C.3     1  UNL1        0.0609
      7 C         139.5481  143.1921  164.2735 C.3     1  UNL1        0.0375
      8 C         139.8882  144.0358  163.0809 C.3     1  UNL1        0.0950
      9 N         140.3656  143.3876  161.8151 N.pl3   1  UNL1       -0.2785
     10 C         140.5028  141.8957  161.7421 C.3     1  UNL1        0.0950
     11 C         140.1627  141.0519  162.9348 C.3     1  UNL1        0.0375
     12 C         140.7057  144.2314  160.6225 C.ar    1  UNL1        0.2163
     13 N         139.7885  144.5538  159.4803 N.ar    1  UNL1       -0.1804
     14 C         140.5386  145.4226  158.5145 C.ar    1  UNL1        0.2331
     15 N         140.0021  145.9791  157.2290 N.pl3   1  UNL1       -0.3262
     16 N         141.9194  145.6370  159.0599 N.ar    1  UNL1       -0.1354
     17 N         142.0226  144.9008  160.3627 N.ar    1  UNL1       -0.2450
     18 H         139.0775  145.7813  156.9548 H       1  UNL1        0.1452
     19 H         140.5747  146.5423  156.6595 H       1  UNL1        0.1452
     20 H         142.8155  144.8635  160.9451 H       1  UNL1        0.1919
     21 C         137.3454  136.8217  166.8461 C.3     1  UNL1        0.1741
     22 O         137.2939  138.2243  167.3754 O.3     1  UNL1       -0.3521
     23 C         141.2774  141.6748  167.0490 C.3     1  UNL1        0.0424
     24 C         142.4716  141.6820  166.1414 C.ar    1  UNL1       -0.0208
     25 C         142.9679  140.3984  165.5446 C.ar    1  UNL1       -0.0034
     26 C         144.1621  140.4057  164.6370 C.ar    1  UNL1        0.0111
     27 C         144.8600  141.6966  164.3262 C.ar    1  UNL1        0.0577
     28 CL        146.0543  141.7039  163.4185 Cl      1  UNL1       -0.0822
     29 C         144.3638  142.9801  164.9230 C.ar    1  UNL1        0.0111
     30 C         143.1695  142.9728  165.8306 C.ar    1  UNL1       -0.0034
@<TRIPOS>BOND
     1    21    22    1
     2     1    22    1
     3     1     2    1
     4     2     3    1
     5     3    23    1
     6    23    24    1
     7    24    25   ar
     8    25    26   ar
     9    26    27   ar
    10    27    28    1
    11    27    29   ar
    12    29    30   ar
    13     3     4    1
    14     4     6    1
    15     6     7    1
    16     7     8    1
    17     8     9    1
    18     9    12    1
    19    12    13   ar
    20    13    14   ar
    21    14    15    1
    22    14    16   ar
    23    16    17   ar
    24     9    10    1
    25    10    11    1
    26     4     5    1
    27     5     1    1
    28    30    24   ar
    29    11     6    1
    30    17    12   ar
    31    15    18    1
    32    15    19    1
    33    17    20    1
@<TRIPOS>MOLECULE
*****
 30 33 0 0 0
SMALL
GASTEIGER

@<TRIPOS>ATOM
      1 C         142.8465  139.2391  159.7834 C.3     1  UNL1        0.1326
      2 C         141.3865  139.5754  159.8568 C.3     1  UNL1        0.0473
      3 C         141.0771  139.9926  161.2640 C.3     1  UNL1        0.0643
      4 N         142.3459  139.9142  162.0603 N.3     1  UNL1       -0.2727
      5 C         143.4394  139.4485  161.1453 C.3     1  UNL1        0.1020
      6 C         142.4949  140.2436  163.5161 C.3     1  UNL1        0.0609
      7 C         142.6312  139.1413  164.5243 C.3     1  UNL1        0.0375
      8 C         142.7803  139.4707  165.9801 C.3     1  UNL1        0.0950
      9 N         142.7931  140.9024  166.4276 N.pl3   1  UNL1       -0.2785
     10 C         142.6568  142.0045  165.4194 C.3     1  UNL1        0.0950
     11 C         142.5077  141.6752  163.9636 C.3     1  UNL1        0.0375
     12 C         142.9421  141.2317  167.8835 C.ar    1  UNL1        0.2163
     13 N         143.1538  142.5999  168.4606 N.ar    1  UNL1       -0.1804
     14 C         143.2482  142.4646  169.9515 C.ar    1  UNL1        0.2331
     15 N         143.4589  143.5844  170.9270 N.pl3   1  UNL1       -0.3262
     16 N         143.0949  141.0126  170.2957 N.ar    1  UNL1       -0.1354
     17 N         142.9058  140.2507  169.0176 N.ar    1  UNL1       -0.2450
     18 H         143.5487  144.5096  170.6025 H       1  UNL1        0.1452
     19 H         143.5073  143.3943  171.8917 H       1  UNL1        0.1452
     20 H         142.7799  139.2776  168.9372 H       1  UNL1        0.1919
     21 C         142.8387  138.1094  157.4438 C.3     1  UNL1        0.1741
     22 O         143.5840  138.7750  158.5625 O.3     1  UNL1       -0.3521
     23 C         139.7346  140.4141  161.7837 C.3     1  UNL1        0.0424
     24 C         139.2380  139.8838  163.0960 C.ar    1  UNL1       -0.0208
     25 C         139.2205  138.4053  163.3491 C.ar    1  UNL1       -0.0034
     26 C         138.7239  137.8750  164.6614 C.ar    1  UNL1        0.0111
     27 C         138.2448  138.8231  165.7205 C.ar    1  UNL1        0.0577
     28 CL        137.7482  138.2927  167.0328 Cl      1  UNL1       -0.0822
     29 C         138.2624  140.3014  165.4674 C.ar    1  UNL1        0.0111
     30 C         138.7590  140.8318  164.1551 C.ar    1  UNL1       -0.0034
@<TRIPOS>BOND
     1    21    22    1
     2     1    22    1
     3     1     2    1
     4     2     3    1
     5     3    23    1
     6    23    24    1
     7    24    25   ar
     8    25    26   ar
     9    26    27   ar
    10    27    28    1
    11    27    29   ar
    12    29    30   ar
    13     3     4    1
    14     4     6    1
    15     6     7    1
    16     7     8    1
    17     8     9    1
    18     9    12    1
    19    12    13   ar
    20    13    14   ar
    21    14    15    1
    22    14    16   ar
    23    16    17   ar
    24     9    10    1
    25    10    11    1
    26     4     5    1
    27     5     1    1
    28    30    24   ar
    29    11     6    1
    30    17    12   ar
    31    15    18    1
    32    15    19    1
    33    17    20    1
@<TRIPOS>MOLECULE
*****
 30 33 0 0 0
SMALL
GASTEIGER

@<TRIPOS>ATOM
      1 C         139.8268  138.9832  159.7581 C.3     1  UNL1        0.1326
      2 C         140.2181  140.4297  159.6923 C.3     1  UNL1        0.0473
      3 C         140.5772  140.8763  161.0785 C.3     1  UNL1        0.0643
      4 N         140.4078  139.7058  162.0011 N.3     1  UNL1       -0.2727
      5 C         139.9440  138.5357  161.1851 C.3     1  UNL1        0.1020
      6 C         140.6582  139.7053  163.4800 C.3     1  UNL1        0.0609
      7 C         142.0627  139.6414  164.0029 C.3     1  UNL1        0.0375
      8 C         142.3132  139.6410  165.4818 C.3     1  UNL1        0.0950
      9 N         141.1590  139.7044  166.4379 N.pl3   1  UNL1       -0.2785
     10 C         139.7546  139.7683  165.9151 C.3     1  UNL1        0.0950
     11 C         139.5041  139.7688  164.4361 C.3     1  UNL1        0.0375
     12 C         141.4095  139.7040  167.9169 C.ar    1  UNL1        0.2163
     13 N         142.7457  139.5683  168.5847 N.ar    1  UNL1       -0.1804
     14 C         142.5300  139.6196  170.0682 C.ar    1  UNL1        0.2331
     15 N         143.5965  139.5208  171.1183 N.pl3   1  UNL1       -0.3262
     16 N         141.0602  139.7870  170.3172 N.ar    1  UNL1       -0.1354
     17 N         140.3678  139.8392  168.9876 N.ar    1  UNL1       -0.2450
     18 H         144.5386  139.4116  170.8544 H       1  UNL1        0.1452
     19 H         143.3543  139.5652  172.0716 H       1  UNL1        0.1452
     20 H         139.3996  139.9438  168.8431 H       1  UNL1        0.1919
     21 C         139.8039  138.5015  157.2052 C.3     1  UNL1        0.1741
     22 O         139.3941  138.1333  158.6003 O.3     1  UNL1       -0.3521
     23 C         141.0267  142.2519  161.4729 C.3     1  UNL1        0.0424
     24 C         140.3275  142.9802  162.5823 C.ar    1  UNL1       -0.0208
     25 C         138.8847  143.3634  162.4355 C.ar    1  UNL1       -0.0034
     26 C         138.1856  144.0917  163.5449 C.ar    1  UNL1        0.0111
     27 C         138.9292  144.4367  164.8011 C.ar    1  UNL1        0.0577
     28 CL        138.2300  145.1650  165.9105 Cl      1  UNL1       -0.0822
     29 C         140.3719  144.0534  164.9479 C.ar    1  UNL1        0.0111
     30 C         141.0711  143.3252  163.8385 C.ar    1  UNL1       -0.0034
@<TRIPOS>BOND
     1    21    22    1
     2     1    22    1
     3     1     2    1
     4     2     3    1
     5     3    23    1
     6    23    24    1
     7    24    25   ar
     8    25    26   ar
     9    26    27   ar
    10    27    28    1
    11    27    29   ar
    12    29    30   ar
    13     3     4    1
    14     4     6    1
    15     6     7    1
    16     7     8    1
    17     8     9    1
    18     9    12    1
    19    12    13   ar
    20    13    14   ar
    21    14    15    1
    22    14    16   ar
    23    16    17   ar
    24     9    10    1
    25    10    11    1
    26     4     5    1
    27     5     1    1
    28    30    24   ar
    29    11     6    1
    30    17    12   ar
    31    15    18    1
    32    15    19    1
    33    17    20    1
@<TRIPOS>MOLECULE
*****
 30 33 0 0 0
SMALL
GASTEIGER

@<TRIPOS>ATOM
      1 C         142.3582  139.7676  168.4882 C.3     1  UNL1        0.1326
      2 C         140.8798  139.8815  168.2617 C.3     1  UNL1        0.0473
      3 C         140.6255  139.7571  166.7887 C.3     1  UNL1        0.0643
      4 N         141.9468  139.5664  166.1047 N.3     1  UNL1       -0.2727
      5 C         143.0177  139.5729  167.1550 C.3     1  UNL1        0.1020
      6 C         142.1598  139.3987  164.6294 C.3     1  UNL1        0.0609
      7 C         142.6637  140.5488  163.8088 C.3     1  UNL1        0.0375
      8 C         142.8767  140.3812  162.3336 C.3     1  UNL1        0.0950
      9 N         142.5859  139.0632  161.6789 N.pl3   1  UNL1       -0.2785
     10 C         142.0820  137.9132  162.4994 C.3     1  UNL1        0.0950
     11 C         141.8690  138.0808  163.9747 C.3     1  UNL1        0.0375
     12 C         142.7989  138.8956  160.2035 C.ar    1  UNL1        0.2163
     13 N         141.9279  138.1073  159.2710 N.ar    1  UNL1       -0.1804
     14 C         142.5109  138.2112  157.8928 C.ar    1  UNL1        0.2331
     15 N         141.9594  137.5744  156.6517 N.pl3   1  UNL1       -0.3262
     16 N         143.7424  139.0638  157.9738 N.ar    1  UNL1       -0.1354
     17 N         143.9204  139.4868  159.4018 N.ar    1  UNL1       -0.2450
     18 H         141.1410  137.0294  156.7001 H       1  UNL1        0.1452
     19 H         142.4159  137.7015  155.7888 H       1  UNL1        0.1452
     20 H         144.6459  140.0530  159.7515 H       1  UNL1        0.1919
     21 C         142.4183  140.5680  170.9592 C.3     1  UNL1        0.1741
     22 O         143.0549  139.8364  169.8148 O.3     1  UNL1       -0.3521
     23 C         139.2853  139.8136  166.1175 C.3     1  UNL1        0.0424
     24 C         138.9068  141.0115  165.2979 C.ar    1  UNL1       -0.0208
     25 C         137.8942  140.8789  164.1991 C.ar    1  UNL1       -0.0034
     26 C         137.5157  142.0767  163.3795 C.ar    1  UNL1        0.0111
     27 C         138.1498  143.4072  163.6586 C.ar    1  UNL1        0.0577
     28 CL        137.7713  144.6051  162.8389 Cl      1  UNL1       -0.0822
     29 C         139.1623  143.5398  164.7573 C.ar    1  UNL1        0.0111
     30 C         139.5408  142.3419  165.5769 C.ar    1  UNL1       -0.0034
@<TRIPOS>BOND
     1    21    22    1
     2     1    22    1
     3     1     2    1
     4     2     3    1
     5     3    23    1
     6    23    24    1
     7    24    25   ar
     8    25    26   ar
     9    26    27   ar
    10    27    28    1
    11    27    29   ar
    12    29    30   ar
    13     3     4    1
    14     4     6    1
    15     6     7    1
    16     7     8    1
    17     8     9    1
    18     9    12    1
    19    12    13   ar
    20    13    14   ar
    21    14    15    1
    22    14    16   ar
    23    16    17   ar
    24     9    10    1
    25    10    11    1
    26     4     5    1
    27     5     1    1
    28    30    24   ar
    29    11     6    1
    30    17    12   ar
    31    15    18    1
    32    15    19    1
    33    17    20    1
