@<TRIPOS>MOLECULE
*****
 34 37 0 0 0
SMALL
GASTEIGER

@<TRIPOS>ATOM
      1 C         142.9647  135.4693  155.7480 C.ar    1  UNL1        0.1122
      2 N         141.7810  136.1108  156.4094 N.ar    1  UNL1       -0.2259
      3 C         142.1102  137.5545  156.6496 C.ar    1  UNL1        0.1412
      4 C         143.4973  137.8052  156.1366 C.ar    1  UNL1        0.0710
      5 S         144.0254  136.5166  155.5794 S.2     1  UNL1       -0.0670
      6 C         145.0097  131.0279  158.0592 C.3     1  UNL1        0.0320
      7 C         144.3629  132.0296  157.1491 C.3     1  UNL1        0.1155
      8 C         143.8208  131.5949  155.8198 C.3     1  UNL1        0.0328
      9 C         143.1740  132.5965  154.9097 C.3     1  UNL1        0.0426
     10 C         142.6318  132.1617  153.5803 C.3     1  UNL1        0.0673
     11 S         141.9850  133.1634  152.6702 S.3     1  UNL1       -0.0807
     12 C         141.8804  134.5999  153.0894 C.2     1  UNL1        0.1483
     13 N         141.2336  135.6016  152.1793 N.pl3   1  UNL1       -0.3380
     14 N         142.4225  135.0346  154.4187 N.2     1  UNL1       -0.2464
     15 C         143.0693  134.0329  155.3288 C.3     1  UNL1        0.1549
     16 C         143.6115  134.4677  156.6581 C.3     1  UNL1        0.1705
     17 O         144.2583  133.4660  157.5682 O.3     1  UNL1       -0.3538
     18 H         140.8778  135.3162  151.3069 H       1  UNL1        0.1442
     19 H         141.1649  136.5444  152.4545 H       1  UNL1        0.1442
     20 N         141.2102  138.5692  157.2902 N.am    1  UNL1       -0.2641
     21 C         141.2788  138.8045  158.7700 C.2     1  UNL1        0.2683
     22 O         142.2474  138.0249  159.6092 O.2     1  UNL1       -0.2681
     23 H         140.5745  139.0809  156.7394 H       1  UNL1        0.1566
     24 C         140.3789  139.8192  159.4106 C.ar    1  UNL1        0.1350
     25 C         140.9394  140.8053  160.3921 C.ar    1  UNL1        0.0269
     26 C         140.0395  141.8200  161.0327 C.ar    1  UNL1        0.0405
     27 C         138.5790  141.8487  160.6919 C.ar    1  UNL1        0.1659
     28 C         138.0185  140.8626  159.7104 C.ar    1  UNL1        0.1360
     29 N         138.9184  139.8478  159.0697 N.ar    1  UNL1       -0.2361
     30 O         137.6791  142.8634  161.3325 O.3     1  UNL1       -0.4029
     31 C         137.6268  142.9822  162.8268 C.3     1  UNL1        0.5753
     32 F         137.5745  143.1011  164.3212 F       1  UNL1       -0.1328
     33 F         137.0838  141.5870  162.9189 F       1  UNL1       -0.1328
     34 F         138.1697  144.3775  162.7349 F       1  UNL1       -0.1328
@<TRIPOS>BOND
     1     7     6    1
     2     7     8    1
     3     9     8    1
     4     9    10    1
     5    10    11    1
     6    11    12    1
     7    12    13    1
     8    12    14    2
     9    14    15    1
    10    15     1    1
    11     1     2   ar
    12     2     3   ar
    13     3    20    1
    14    20    21   am
    15    21    22    2
    16    21    24    1
    17    24    25   ar
    18    25    26   ar
    19    26    27   ar
    20    27    30    1
    21    30    31    1
    22    31    32    1
    23    31    33    1
    24    31    34    1
    25    27    28   ar
    26    28    29   ar
    27     3     4   ar
    28     4     5   ar
    29    15    16    1
    30    16    17    1
    31    17     7    1
    32    15     9    1
    33     5     1   ar
    34    29    24   ar
    35    13    18    1
    36    13    19    1
    37    20    23    1
@<TRIPOS>MOLECULE
*****
 34 37 0 0 0
SMALL
GASTEIGER

@<TRIPOS>ATOM
      1 C         138.6783  141.5772  158.6483 C.ar    1  UNL1        0.1122
      2 N         138.4357  141.8394  160.1052 N.ar    1  UNL1       -0.2259
      3 C         138.5696  140.5379  160.8390 C.ar    1  UNL1        0.1412
      4 C         138.8948  139.4713  159.8356 C.ar    1  UNL1        0.0710
      5 S         138.9620  140.1136  158.4817 S.2     1  UNL1       -0.0670
      6 C         141.7505  145.8506  157.4039 C.3     1  UNL1        0.0320
      7 C         140.7148  144.7668  157.4528 C.3     1  UNL1        0.1155
      8 C         139.6440  144.7047  156.4043 C.3     1  UNL1        0.0328
      9 C         138.6082  143.6208  156.4532 C.3     1  UNL1        0.0426
     10 C         137.5374  143.5587  155.4046 C.3     1  UNL1        0.0673
     11 S         136.5017  142.4748  155.4536 S.3     1  UNL1       -0.0807
     12 C         136.5367  141.4530  156.5512 C.2     1  UNL1        0.1483
     13 N         135.5010  140.3691  156.6002 N.pl3   1  UNL1       -0.3380
     14 N         137.6075  141.5151  157.5997 N.2     1  UNL1       -0.2464
     15 C         138.6433  142.5990  157.5508 C.3     1  UNL1        0.1549
     16 C         139.7140  142.6610  158.5993 C.3     1  UNL1        0.1705
     17 O         140.7498  143.7449  158.5504 O.3     1  UNL1       -0.3538
     18 H         134.7982  140.3284  155.9119 H       1  UNL1        0.1442
     19 H         135.5240  139.6984  157.3205 H       1  UNL1        0.1442
     20 N         138.4067  140.3381  162.3167 N.am    1  UNL1       -0.2641
     21 C         139.6062  140.3822  163.2161 C.2     1  UNL1        0.2683
     22 O         140.9687  140.6262  162.6379 O.2     1  UNL1       -0.2681
     23 H         137.5125  140.1780  162.6962 H       1  UNL1        0.1566
     24 C         139.4434  140.1824  164.6938 C.ar    1  UNL1        0.1350
     25 C         138.4346  139.2001  165.2112 C.ar    1  UNL1        0.0269
     26 C         138.2718  139.0003  166.6888 C.ar    1  UNL1        0.0405
     27 C         139.1176  139.7827  167.6492 C.ar    1  UNL1        0.1659
     28 C         140.1264  140.7650  167.1318 C.ar    1  UNL1        0.1360
     29 N         140.2892  140.9648  165.6541 N.ar    1  UNL1       -0.2361
     30 O         138.9548  139.5829  169.1268 O.3     1  UNL1       -0.4029
     31 C         139.7898  140.3765  170.0874 C.3     1  UNL1        0.5753
     32 F         140.6249  141.1701  171.0481 F       1  UNL1       -0.1328
     33 F         140.8729  139.3424  170.0004 F       1  UNL1       -0.1328
     34 F         138.7068  141.4106  170.1746 F       1  UNL1       -0.1328
@<TRIPOS>BOND
     1     7     6    1
     2     7     8    1
     3     9     8    1
     4     9    10    1
     5    10    11    1
     6    11    12    1
     7    12    13    1
     8    12    14    2
     9    14    15    1
    10    15     1    1
    11     1     2   ar
    12     2     3   ar
    13     3    20    1
    14    20    21   am
    15    21    22    2
    16    21    24    1
    17    24    25   ar
    18    25    26   ar
    19    26    27   ar
    20    27    30    1
    21    30    31    1
    22    31    32    1
    23    31    33    1
    24    31    34    1
    25    27    28   ar
    26    28    29   ar
    27     3     4   ar
    28     4     5   ar
    29    15    16    1
    30    16    17    1
    31    17     7    1
    32    15     9    1
    33     5     1   ar
    34    29    24   ar
    35    13    18    1
    36    13    19    1
    37    20    23    1
@<TRIPOS>MOLECULE
*****
 34 37 0 0 0
SMALL
GASTEIGER

@<TRIPOS>ATOM
      1 C         141.7300  141.2744  165.0562 C.ar    1  UNL1        0.1122
      2 N         140.9592  142.0757  164.0493 N.ar    1  UNL1       -0.2259
      3 C         141.7274  142.0634  162.7609 C.ar    1  UNL1        0.1412
      4 C         142.9729  141.2543  162.9716 C.ar    1  UNL1        0.0710
      5 S         142.9745  140.7667  164.3901 S.2     1  UNL1       -0.0670
      6 C         143.8585  142.6081  169.8459 C.3     1  UNL1        0.0320
      7 C         143.0146  142.0802  168.7237 C.3     1  UNL1        0.1155
      8 C         141.7678  141.3025  169.0245 C.3     1  UNL1        0.0328
      9 C         140.9240  140.7746  167.9023 C.3     1  UNL1        0.0426
     10 C         139.6771  139.9969  168.2033 C.3     1  UNL1        0.0673
     11 S         138.8333  139.4690  167.0811 S.3     1  UNL1       -0.0807
     12 C         139.2363  139.7189  165.6580 C.2     1  UNL1        0.1483
     13 N         138.3925  139.1910  164.5358 N.pl3   1  UNL1       -0.3380
     14 N         140.4831  140.4966  165.3571 N.2     1  UNL1       -0.2464
     15 C         141.3270  141.0245  166.4793 C.3     1  UNL1        0.1549
     16 C         142.5738  141.8022  166.1784 C.3     1  UNL1        0.1705
     17 O         143.4176  142.3301  167.3006 O.3     1  UNL1       -0.3538
     18 H         137.5742  138.6806  164.7332 H       1  UNL1        0.1442
     19 H         138.6570  139.3550  163.6017 H       1  UNL1        0.1442
     20 N         141.3214  142.7410  161.4858 N.am    1  UNL1       -0.2641
     21 C         142.0884  143.9316  160.9921 C.2     1  UNL1        0.2683
     22 O         143.2616  144.4447  161.7735 O.2     1  UNL1       -0.2681
     23 H         140.5514  142.4043  160.9730 H       1  UNL1        0.1566
     24 C         141.6824  144.6093  159.7170 C.ar    1  UNL1        0.1350
     25 C         140.3459  145.2831  159.6183 C.ar    1  UNL1        0.0269
     26 C         139.9399  145.9607  158.3432 C.ar    1  UNL1        0.0405
     27 C         140.8703  145.9646  157.1668 C.ar    1  UNL1        0.1659
     28 C         142.2068  145.2908  157.2654 C.ar    1  UNL1        0.1360
     29 N         142.6128  144.6131  158.5405 N.ar    1  UNL1       -0.2361
     30 O         140.4643  146.6422  155.8916 O.3     1  UNL1       -0.4029
     31 C         139.0678  146.4814  155.3686 C.3     1  UNL1        0.5753
     32 F         137.6711  146.3205  154.8455 F       1  UNL1       -0.1328
     33 F         139.3404  145.0338  155.0855 F       1  UNL1       -0.1328
     34 F         138.7950  147.9290  155.6517 F       1  UNL1       -0.1328
@<TRIPOS>BOND
     1     7     6    1
     2     7     8    1
     3     9     8    1
     4     9    10    1
     5    10    11    1
     6    11    12    1
     7    12    13    1
     8    12    14    2
     9    14    15    1
    10    15     1    1
    11     1     2   ar
    12     2     3   ar
    13     3    20    1
    14    20    21   am
    15    21    22    2
    16    21    24    1
    17    24    25   ar
    18    25    26   ar
    19    26    27   ar
    20    27    30    1
    21    30    31    1
    22    31    32    1
    23    31    33    1
    24    31    34    1
    25    27    28   ar
    26    28    29   ar
    27     3     4   ar
    28     4     5   ar
    29    15    16    1
    30    16    17    1
    31    17     7    1
    32    15     9    1
    33     5     1   ar
    34    29    24   ar
    35    13    18    1
    36    13    19    1
    37    20    23    1
@<TRIPOS>MOLECULE
*****
 34 37 0 0 0
SMALL
GASTEIGER

@<TRIPOS>ATOM
      1 C         142.7252  142.2871  165.0756 C.ar    1  UNL1        0.1122
      2 N         141.8596  142.5144  163.8718 N.ar    1  UNL1       -0.2259
      3 C         142.4064  143.6941  163.1237 C.ar    1  UNL1        0.1412
      4 C         143.6099  144.1959  163.8653 C.ar    1  UNL1        0.0710
      5 S         143.8069  143.3264  165.0716 S.2     1  UNL1       -0.0670
      6 C         139.9055  141.9356  169.6773 C.3     1  UNL1        0.0320
      7 C         140.7841  141.6936  168.4859 C.3     1  UNL1        0.1155
      8 C         141.4789  140.3744  168.3218 C.3     1  UNL1        0.0328
      9 C         142.3575  140.1325  167.1304 C.3     1  UNL1        0.0426
     10 C         143.0522  138.8132  166.9664 C.3     1  UNL1        0.0673
     11 S         143.9309  138.5713  165.7750 S.3     1  UNL1       -0.0807
     12 C         144.1147  139.6487  164.7475 C.2     1  UNL1        0.1483
     13 N         144.9933  139.4068  163.5561 N.pl3   1  UNL1       -0.3380
     14 N         143.4199  140.9679  164.9116 N.2     1  UNL1       -0.2464
     15 C         142.5413  141.2098  166.1030 C.3     1  UNL1        0.1549
     16 C         141.8466  142.5290  166.2670 C.3     1  UNL1        0.1705
     17 O         140.9680  142.7709  167.4585 O.3     1  UNL1       -0.3538
     18 H         145.4493  138.5409  163.4485 H       1  UNL1        0.1442
     19 H         145.1140  140.1139  162.8818 H       1  UNL1        0.1442
     20 N         141.8478  144.2707  161.8567 N.am    1  UNL1       -0.2641
     21 C         142.1281  143.6049  160.5422 C.2     1  UNL1        0.2683
     22 O         142.9671  142.3623  160.4948 O.2     1  UNL1       -0.2681
     23 H         141.2972  145.0863  161.8879 H       1  UNL1        0.1566
     24 C         141.5695  144.1815  159.2752 C.ar    1  UNL1        0.1350
     25 C         140.3023  143.6279  158.6941 C.ar    1  UNL1        0.0269
     26 C         139.7437  144.2045  157.4270 C.ar    1  UNL1        0.0405
     27 C         140.4522  145.3347  156.7411 C.ar    1  UNL1        0.1659
     28 C         141.7195  145.8883  157.3222 C.ar    1  UNL1        0.1360
     29 N         142.2781  145.3116  158.5893 N.ar    1  UNL1       -0.2361
     30 O         139.8936  145.9113  155.4740 O.3     1  UNL1       -0.4029
     31 C         139.6955  147.3927  155.3477 C.3     1  UNL1        0.5753
     32 F         139.4973  148.8742  155.2214 F       1  UNL1       -0.1328
     33 F         140.7400  147.4408  154.2722 F       1  UNL1       -0.1328
     34 F         138.6509  147.3447  156.4232 F       1  UNL1       -0.1328
@<TRIPOS>BOND
     1     7     6    1
     2     7     8    1
     3     9     8    1
     4     9    10    1
     5    10    11    1
     6    11    12    1
     7    12    13    1
     8    12    14    2
     9    14    15    1
    10    15     1    1
    11     1     2   ar
    12     2     3   ar
    13     3    20    1
    14    20    21   am
    15    21    22    2
    16    21    24    1
    17    24    25   ar
    18    25    26   ar
    19    26    27   ar
    20    27    30    1
    21    30    31    1
    22    31    32    1
    23    31    33    1
    24    31    34    1
    25    27    28   ar
    26    28    29   ar
    27     3     4   ar
    28     4     5   ar
    29    15    16    1
    30    16    17    1
    31    17     7    1
    32    15     9    1
    33     5     1   ar
    34    29    24   ar
    35    13    18    1
    36    13    19    1
    37    20    23    1
@<TRIPOS>MOLECULE
*****
 34 37 0 0 0
SMALL
GASTEIGER

@<TRIPOS>ATOM
      1 C         139.4850  140.5441  163.6957 C.ar    1  UNL1        0.1122
      2 N         140.3709  140.2977  162.5106 N.ar    1  UNL1       -0.2259
      3 C         139.8386  139.1043  161.7740 C.ar    1  UNL1        0.1412
      4 C         138.6237  138.6131  162.5040 C.ar    1  UNL1        0.0710
      5 S         138.4052  139.5029  163.6916 S.2     1  UNL1       -0.0670
      6 C         141.7526  140.8103  168.5984 C.3     1  UNL1        0.0320
      7 C         141.0517  141.0866  167.3014 C.3     1  UNL1        0.1155
      8 C         140.5158  142.4582  167.0159 C.3     1  UNL1        0.0328
      9 C         139.8149  142.7345  165.7188 C.3     1  UNL1        0.0426
     10 C         139.2789  144.1062  165.4333 C.3     1  UNL1        0.0673
     11 S         138.5780  144.3825  164.1362 S.3     1  UNL1       -0.0807
     12 C         138.4131  143.2872  163.1247 C.2     1  UNL1        0.1483
     13 N         137.7122  143.5636  161.8276 N.pl3   1  UNL1       -0.3380
     14 N         138.9491  141.9157  163.4102 N.2     1  UNL1       -0.2464
     15 C         139.6500  141.6393  164.7072 C.3     1  UNL1        0.1549
     16 C         140.1859  140.2678  164.9928 C.3     1  UNL1        0.1705
     17 O         140.8868  139.9914  166.2898 O.3     1  UNL1       -0.3538
     18 H         137.3604  144.4638  161.6402 H       1  UNL1        0.1442
     19 H         137.6039  142.8447  161.1637 H       1  UNL1        0.1442
     20 N         140.4192  138.5069  160.5266 N.am    1  UNL1       -0.2641
     21 C         139.7312  138.7068  159.2089 C.2     1  UNL1        0.2683
     22 O         138.4625  139.5040  159.1385 O.2     1  UNL1       -0.2681
     23 H         141.2519  137.9837  160.5728 H       1  UNL1        0.1566
     24 C         140.3118  138.1094  157.9615 C.ar    1  UNL1        0.1350
     25 C         141.7994  138.0619  157.7748 C.ar    1  UNL1        0.0269
     26 C         142.3800  137.4646  156.5273 C.ar    1  UNL1        0.0405
     27 C         141.4731  136.9147  155.4666 C.ar    1  UNL1        0.1659
     28 C         139.9855  136.9623  155.6534 C.ar    1  UNL1        0.1360
     29 N         139.4049  137.5596  156.9008 N.ar    1  UNL1       -0.2361
     30 O         142.0538  136.3174  154.2192 O.3     1  UNL1       -0.4029
     31 C         142.4372  134.8676  154.1901 C.3     1  UNL1        0.5753
     32 F         142.8206  133.4177  154.1610 F       1  UNL1       -0.1328
     33 F         143.7288  135.1953  154.8789 F       1  UNL1       -0.1328
     34 F         141.1456  134.5399  153.5013 F       1  UNL1       -0.1328
@<TRIPOS>BOND
     1     7     6    1
     2     7     8    1
     3     9     8    1
     4     9    10    1
     5    10    11    1
     6    11    12    1
     7    12    13    1
     8    12    14    2
     9    14    15    1
    10    15     1    1
    11     1     2   ar
    12     2     3   ar
    13     3    20    1
    14    20    21   am
    15    21    22    2
    16    21    24    1
    17    24    25   ar
    18    25    26   ar
    19    26    27   ar
    20    27    30    1
    21    30    31    1
    22    31    32    1
    23    31    33    1
    24    31    34    1
    25    27    28   ar
    26    28    29   ar
    27     3     4   ar
    28     4     5   ar
    29    15    16    1
    30    16    17    1
    31    17     7    1
    32    15     9    1
    33     5     1   ar
    34    29    24   ar
    35    13    18    1
    36    13    19    1
    37    20    23    1
@<TRIPOS>MOLECULE
*****
 34 37 0 0 0
SMALL
GASTEIGER

@<TRIPOS>ATOM
      1 C         139.3025  141.5414  159.0109 C.ar    1  UNL1        0.1122
      2 N         139.0185  141.8693  160.4468 N.ar    1  UNL1       -0.2259
      3 C         139.8083  140.9242  161.3031 C.ar    1  UNL1        0.1412
      4 C         140.5805  140.0122  160.3964 C.ar    1  UNL1        0.0710
      5 S         140.2679  140.3936  158.9797 S.2     1  UNL1       -0.0670
      6 C         135.0775  140.5604  155.7802 C.3     1  UNL1        0.0320
      7 C         136.2927  141.1199  156.4588 C.3     1  UNL1        0.1155
      8 C         136.9283  142.3766  155.9425 C.3     1  UNL1        0.0328
      9 C         138.1434  142.9360  156.6211 C.3     1  UNL1        0.0426
     10 C         138.7790  144.1928  156.1047 C.3     1  UNL1        0.0673
     11 S         139.9942  144.7522  156.7833 S.3     1  UNL1       -0.0807
     12 C         140.5737  144.0548  157.9783 C.2     1  UNL1        0.1483
     13 N         141.7888  144.6142  158.6569 N.pl3   1  UNL1       -0.3380
     14 N         139.9381  142.7981  158.4946 N.2     1  UNL1       -0.2464
     15 C         138.7230  142.2387  157.8160 C.3     1  UNL1        0.1549
     16 C         138.0874  140.9820  158.3323 C.3     1  UNL1        0.1705
     17 O         136.8722  140.4226  157.6537 O.3     1  UNL1       -0.3538
     18 H         142.2060  145.4390  158.3180 H       1  UNL1        0.1442
     19 H         142.1692  144.1565  159.4411 H       1  UNL1        0.1442
     20 N         139.8233  140.8961  162.8028 N.am    1  UNL1       -0.2641
     21 C         139.0214  139.8662  163.5416 C.2     1  UNL1        0.2683
     22 O         138.2043  138.8643  162.7808 O.2     1  UNL1       -0.2681
     23 H         140.3596  141.5537  163.3021 H       1  UNL1        0.1566
     24 C         139.0364  139.8381  165.0413 C.ar    1  UNL1        0.1350
     25 C         138.0634  138.9720  165.7850 C.ar    1  UNL1        0.0269
     26 C         138.0784  138.9439  167.2846 C.ar    1  UNL1        0.0405
     27 C         139.0663  139.7819  168.0406 C.ar    1  UNL1        0.1659
     28 C         140.0393  140.6480  167.2969 C.ar    1  UNL1        0.1360
     29 N         140.0243  140.6761  165.7973 N.ar    1  UNL1       -0.2361
     30 O         139.0813  139.7538  169.5402 O.3     1  UNL1       -0.4029
     31 C         140.0908  140.5663  170.2955 C.3     1  UNL1        0.5753
     32 F         141.1004  141.3790  171.0508 F       1  UNL1       -0.1328
     33 F         139.1504  141.7349  170.2954 F       1  UNL1       -0.1328
     34 F         141.0313  139.3978  170.2957 F       1  UNL1       -0.1328
@<TRIPOS>BOND
     1     7     6    1
     2     7     8    1
     3     9     8    1
     4     9    10    1
     5    10    11    1
     6    11    12    1
     7    12    13    1
     8    12    14    2
     9    14    15    1
    10    15     1    1
    11     1     2   ar
    12     2     3   ar
    13     3    20    1
    14    20    21   am
    15    21    22    2
    16    21    24    1
    17    24    25   ar
    18    25    26   ar
    19    26    27   ar
    20    27    30    1
    21    30    31    1
    22    31    32    1
    23    31    33    1
    24    31    34    1
    25    27    28   ar
    26    28    29   ar
    27     3     4   ar
    28     4     5   ar
    29    15    16    1
    30    16    17    1
    31    17     7    1
    32    15     9    1
    33     5     1   ar
    34    29    24   ar
    35    13    18    1
    36    13    19    1
    37    20    23    1
@<TRIPOS>MOLECULE
*****
 34 37 0 0 0
SMALL
GASTEIGER

@<TRIPOS>ATOM
      1 C         141.5133  141.3663  162.3539 C.ar    1  UNL1        0.1122
      2 N         141.3778  141.0116  160.9027 N.ar    1  UNL1       -0.2259
      3 C         141.4490  139.5181  160.7819 C.ar    1  UNL1        0.1412
      4 C         141.6286  138.9498  162.1585 C.ar    1  UNL1        0.0710
      5 S         141.6683  140.0920  163.1300 S.2     1  UNL1       -0.0670
      6 C         137.7248  144.3822  164.7627 C.3     1  UNL1        0.0320
      7 C         138.9821  143.8387  164.1512 C.3     1  UNL1        0.1155
      8 C         140.2228  144.6809  164.1139 C.3     1  UNL1        0.0328
      9 C         141.4800  144.1375  163.5023 C.3     1  UNL1        0.0426
     10 C         142.7208  144.9798  163.4651 C.3     1  UNL1        0.0673
     11 S         143.9780  144.4363  162.8536 S.3     1  UNL1       -0.0807
     12 C         143.9946  143.0507  162.2793 C.2     1  UNL1        0.1483
     13 N         145.2519  142.5072  161.6678 N.pl3   1  UNL1       -0.3380
     14 N         142.7539  142.2085  162.3166 N.2     1  UNL1       -0.2464
     15 C         141.4966  142.7519  162.9281 C.3     1  UNL1        0.1549
     16 C         140.2560  141.9097  162.9654 C.3     1  UNL1        0.1705
     17 O         138.9987  142.4531  163.5769 O.3     1  UNL1       -0.3538
     18 H         146.0662  143.0600  161.6433 H       1  UNL1        0.1442
     19 H         145.2627  141.5978  161.2909 H       1  UNL1        0.1442
     20 N         141.3570  138.7311  159.5083 N.am    1  UNL1       -0.2641
     21 C         142.5761  138.5382  158.6561 C.2     1  UNL1        0.2683
     22 O         143.8875  139.1322  159.0776 O.2     1  UNL1       -0.2681
     23 H         140.4963  138.3413  159.2317 H       1  UNL1        0.1566
     24 C         142.4840  137.7512  157.3825 C.ar    1  UNL1        0.1350
     25 C         141.1508  137.2662  156.8953 C.ar    1  UNL1        0.0269
     26 C         141.0587  136.4792  155.6216 C.ar    1  UNL1        0.0405
     27 C         142.2998  136.1773  154.8352 C.ar    1  UNL1        0.1659
     28 C         143.6329  136.6623  155.3224 C.ar    1  UNL1        0.1360
     29 N         143.7250  137.4493  156.5960 N.ar    1  UNL1       -0.2361
     30 O         142.2077  135.3903  153.5615 O.3     1  UNL1       -0.4029
     31 C         141.6469  133.9993  153.5783 C.3     1  UNL1        0.5753
     32 F         141.0860  132.6082  153.5951 F       1  UNL1       -0.1328
     33 F         142.8268  133.5331  154.3786 F       1  UNL1       -0.1328
     34 F         140.4669  134.4653  152.7780 F       1  UNL1       -0.1328
@<TRIPOS>BOND
     1     7     6    1
     2     7     8    1
     3     9     8    1
     4     9    10    1
     5    10    11    1
     6    11    12    1
     7    12    13    1
     8    12    14    2
     9    14    15    1
    10    15     1    1
    11     1     2   ar
    12     2     3   ar
    13     3    20    1
    14    20    21   am
    15    21    22    2
    16    21    24    1
    17    24    25   ar
    18    25    26   ar
    19    26    27   ar
    20    27    30    1
    21    30    31    1
    22    31    32    1
    23    31    33    1
    24    31    34    1
    25    27    28   ar
    26    28    29   ar
    27     3     4   ar
    28     4     5   ar
    29    15    16    1
    30    16    17    1
    31    17     7    1
    32    15     9    1
    33     5     1   ar
    34    29    24   ar
    35    13    18    1
    36    13    19    1
    37    20    23    1
@<TRIPOS>MOLECULE
*****
 34 37 0 0 0
SMALL
GASTEIGER

@<TRIPOS>ATOM
      1 C         139.3729  143.0530  157.8983 C.ar    1  UNL1        0.1122
      2 N         139.2513  143.4596  159.3370 N.ar    1  UNL1       -0.2259
      3 C         140.4341  142.9075  160.0762 C.ar    1  UNL1        0.1412
      4 C         141.2866  142.1597  159.0943 C.ar    1  UNL1        0.0710
      5 S         140.6308  142.2496  157.7483 S.2     1  UNL1       -0.0670
      6 C         135.0719  140.5442  155.7869 C.3     1  UNL1        0.0320
      7 C         136.1834  141.4930  156.1253 C.3     1  UNL1        0.1155
      8 C         136.3283  142.7792  155.3674 C.3     1  UNL1        0.0328
      9 C         137.4398  143.7280  155.7057 C.3     1  UNL1        0.0426
     10 C         137.5846  145.0143  154.9478 C.3     1  UNL1        0.0673
     11 S         138.6961  145.9631  155.2861 S.3     1  UNL1       -0.0807
     12 C         139.6627  145.6255  156.3825 C.2     1  UNL1        0.1483
     13 N         140.7742  146.5743  156.7208 N.pl3   1  UNL1       -0.3380
     14 N         139.5178  144.3393  157.1404 N.2     1  UNL1       -0.2464
     15 C         138.4063  143.3905  156.8020 C.3     1  UNL1        0.1549
     16 C         138.2614  142.1042  157.5599 C.3     1  UNL1        0.1705
     17 O         137.1499  141.1555  157.2215 O.3     1  UNL1       -0.3538
     18 H         140.8693  147.4186  156.2234 H       1  UNL1        0.1442
     19 H         141.4085  146.3528  157.4403 H       1  UNL1        0.1442
     20 N         140.7150  143.0739  161.5403 N.am    1  UNL1       -0.2641
     21 C         140.4442  141.9442  162.4891 C.2     1  UNL1        0.2683
     22 O         139.8924  140.6480  161.9738 O.2     1  UNL1       -0.2681
     23 H         141.0771  143.9247  161.8784 H       1  UNL1        0.1566
     24 C         140.7251  142.1107  163.9531 C.ar    1  UNL1        0.1350
     25 C         139.8187  142.9546  164.7995 C.ar    1  UNL1        0.0269
     26 C         140.0996  143.1211  166.2635 C.ar    1  UNL1        0.0405
     27 C         141.2868  142.4437  166.8812 C.ar    1  UNL1        0.1659
     28 C         142.1931  141.5997  166.0348 C.ar    1  UNL1        0.1360
     29 N         141.9122  141.4333  164.5708 N.ar    1  UNL1       -0.2361
     30 O         141.5677  142.6101  168.3452 O.3     1  UNL1       -0.4029
     31 C         140.4352  142.6308  169.3285 C.3     1  UNL1        0.5753
     32 F         139.3027  142.6514  170.3119 F       1  UNL1       -0.1328
     33 F         140.1481  141.1894  169.0283 F       1  UNL1       -0.1328
     34 F         140.7223  144.0721  169.6288 F       1  UNL1       -0.1328
@<TRIPOS>BOND
     1     7     6    1
     2     7     8    1
     3     9     8    1
     4     9    10    1
     5    10    11    1
     6    11    12    1
     7    12    13    1
     8    12    14    2
     9    14    15    1
    10    15     1    1
    11     1     2   ar
    12     2     3   ar
    13     3    20    1
    14    20    21   am
    15    21    22    2
    16    21    24    1
    17    24    25   ar
    18    25    26   ar
    19    26    27   ar
    20    27    30    1
    21    30    31    1
    22    31    32    1
    23    31    33    1
    24    31    34    1
    25    27    28   ar
    26    28    29   ar
    27     3     4   ar
    28     4     5   ar
    29    15    16    1
    30    16    17    1
    31    17     7    1
    32    15     9    1
    33     5     1   ar
    34    29    24   ar
    35    13    18    1
    36    13    19    1
    37    20    23    1
@<TRIPOS>MOLECULE
*****
 34 37 0 0 0
SMALL
GASTEIGER

@<TRIPOS>ATOM
      1 C         140.3490  143.3202  163.7794 C.ar    1  UNL1        0.1122
      2 N         139.9467  142.5188  162.5769 N.ar    1  UNL1       -0.2259
      3 C         138.9917  143.3451  161.7674 C.ar    1  UNL1        0.1412
      4 C         138.8037  144.6572  162.4697 C.ar    1  UNL1        0.0710
      5 S         139.6425  144.6418  163.7132 S.2     1  UNL1       -0.0670
      6 C         139.8183  140.2367  168.1908 C.3     1  UNL1        0.0320
      7 C         140.3096  141.1170  167.0801 C.3     1  UNL1        0.1155
      8 C         141.7439  141.5548  167.0486 C.3     1  UNL1        0.0328
      9 C         142.2351  142.4352  165.9379 C.3     1  UNL1        0.0426
     10 C         143.6695  142.8730  165.9064 C.3     1  UNL1        0.0673
     11 S         144.1607  143.7533  164.7957 S.3     1  UNL1       -0.0807
     12 C         143.2176  144.1958  163.7164 C.2     1  UNL1        0.1483
     13 N         143.7088  145.0761  162.6057 N.pl3   1  UNL1       -0.3380
     14 N         141.7833  143.7580  163.7479 N.2     1  UNL1       -0.2464
     15 C         141.2920  142.8777  164.8586 C.3     1  UNL1        0.1549
     16 C         139.8577  142.4398  164.8901 C.3     1  UNL1        0.1705
     17 O         139.3665  141.5595  166.0009 O.3     1  UNL1       -0.3538
     18 H         144.6502  145.3635  162.5850 H       1  UNL1        0.1442
     19 H         143.0898  145.3666  161.8974 H       1  UNL1        0.1442
     20 N         138.3392  142.9319  160.4816 N.am    1  UNL1       -0.2641
     21 C         139.1483  142.8548  159.2209 C.2     1  UNL1        0.2683
     22 O         140.6100  143.1909  159.2462 O.2     1  UNL1       -0.2681
     23 H         137.3799  142.7114  160.4650 H       1  UNL1        0.1566
     24 C         138.4958  142.4416  157.9351 C.ar    1  UNL1        0.1350
     25 C         138.6207  143.3094  156.7179 C.ar    1  UNL1        0.0269
     26 C         137.9683  142.8962  155.4320 C.ar    1  UNL1        0.0405
     27 C         137.1909  141.6153  155.3632 C.ar    1  UNL1        0.1659
     28 C         137.0660  140.7475  156.5803 C.ar    1  UNL1        0.1360
     29 N         137.7185  141.1607  157.8662 N.ar    1  UNL1       -0.2361
     30 O         136.5384  141.2021  154.0773 O.3     1  UNL1       -0.4029
     31 C         135.0626  141.3932  153.8899 C.3     1  UNL1        0.5753
     32 F         133.5867  141.5844  153.7025 F       1  UNL1       -0.1328
     33 F         135.3060  142.7878  153.3941 F       1  UNL1       -0.1328
     34 F         134.8191  139.9987  154.3858 F       1  UNL1       -0.1328
@<TRIPOS>BOND
     1     7     6    1
     2     7     8    1
     3     9     8    1
     4     9    10    1
     5    10    11    1
     6    11    12    1
     7    12    13    1
     8    12    14    2
     9    14    15    1
    10    15     1    1
    11     1     2   ar
    12     2     3   ar
    13     3    20    1
    14    20    21   am
    15    21    22    2
    16    21    24    1
    17    24    25   ar
    18    25    26   ar
    19    26    27   ar
    20    27    30    1
    21    30    31    1
    22    31    32    1
    23    31    33    1
    24    31    34    1
    25    27    28   ar
    26    28    29   ar
    27     3     4   ar
    28     4     5   ar
    29    15    16    1
    30    16    17    1
    31    17     7    1
    32    15     9    1
    33     5     1   ar
    34    29    24   ar
    35    13    18    1
    36    13    19    1
    37    20    23    1
