@<TRIPOS>MOLECULE
*****
 29 31 0 0 0
SMALL
GASTEIGER

@<TRIPOS>ATOM
      1 C         141.9170  140.8597  167.2718 C.ar    1  UNL1        0.1409
      2 N         140.7226  140.3084  166.5510 N.ar    1  UNL1       -0.1986
      3 C         139.5537  139.7818  167.3298 C.ar    1  UNL1        0.2181
      4 N         139.5792  139.8066  168.8293 N.ar    1  UNL1       -0.2120
      5 C         140.7735  140.3579  169.5501 C.ar    1  UNL1        0.1091
      6 C         141.9424  140.8845  168.7714 C.ar    1  UNL1        0.1040
      7 C         143.1367  141.4358  169.4923 C.2     1  UNL1        0.2470
      8 N         143.7109  140.6985  170.6655 N.am    1  UNL1       -0.3252
      9 O         143.7569  142.7245  169.0398 O.2     1  UNL1       -0.2702
     10 H         143.3039  139.8526  170.9625 H       1  UNL1        0.1453
     11 H         144.4948  141.0603  171.1386 H       1  UNL1        0.1453
     12 N         143.0858  141.3863  166.4931 N.pl3   1  UNL1       -0.2977
     13 H         143.9598  140.9370  166.5530 H       1  UNL1        0.1536
     14 C         140.0169  144.7336  163.9678 C.3     1  UNL1        0.0311
     15 C         141.3887  144.2710  164.3605 C.ar    1  UNL1       -0.0206
     16 C         142.5977  145.0196  163.8834 C.ar    1  UNL1       -0.0042
     17 C         143.9695  144.5570  164.2761 C.ar    1  UNL1        0.0009
     18 C         144.1322  143.3460  165.1460 C.ar    1  UNL1        0.0146
     19 C         142.9232  142.5974  165.6231 C.ar    1  UNL1        0.0491
     20 C         141.5514  143.0600  165.2304 C.ar    1  UNL1        0.0104
     21 N         138.3594  139.2305  166.6089 N.pl3   1  UNL1       -0.3032
     22 H         137.5527  138.9785  167.1139 H       1  UNL1        0.1496
     23 C         138.3941  139.0631  165.1186 C.3     1  UNL1        0.0875
     24 C         138.8736  137.7743  164.5197 C.3     1  UNL1        0.0224
     25 C         138.9084  137.6069  163.0294 C.3     1  UNL1        0.0188
     26 C         138.4637  138.7285  162.1382 C.3     1  UNL1        0.0687
     27 N         137.9842  140.0174  162.7372 N.3     1  UNL1       -0.2961
     28 C         137.9494  140.1847  164.2274 C.3     1  UNL1        0.0884
     29 H         137.0314  140.1612  162.4025 H       1  UNL1        0.1233
@<TRIPOS>BOND
     1    14    15    1
     2    15    16   ar
     3    16    17   ar
     4    17    18   ar
     5    18    19   ar
     6    19    12    1
     7    12     1    1
     8     1     2   ar
     9     2     3   ar
    10     3    21    1
    11    23    21    1
    12    23    24    1
    13    24    25    1
    14    25    26    1
    15    26    27    1
    16    27    28    1
    17     3     4   ar
    18     4     5   ar
    19     5     6   ar
    20     6     7    1
    21     7     8   am
    22     7     9    2
    23    19    20   ar
    24    20    15   ar
    25     6     1   ar
    26    28    23    1
    27    12    13    1
    28    21    22    1
    29    27    29    1
    30     8    10    1
    31     8    11    1
@<TRIPOS>MOLECULE
*****
 29 31 0 0 0
SMALL
GASTEIGER

@<TRIPOS>ATOM
      1 C         141.4325  140.8103  166.9226 C.ar    1  UNL1        0.1409
      2 N         142.4030  141.6479  166.1438 N.ar    1  UNL1       -0.1986
      3 C         143.4015  142.5044  166.8646 C.ar    1  UNL1        0.2181
      4 N         143.4293  142.5234  168.3642 N.ar    1  UNL1       -0.2120
      5 C         142.4587  141.6859  169.1430 C.ar    1  UNL1        0.1091
      6 C         141.4604  140.8294  168.4223 C.ar    1  UNL1        0.1040
      7 C         140.4898  139.9919  169.2011 C.2     1  UNL1        0.2470
      8 N         140.9142  139.3578  170.4925 N.am    1  UNL1       -0.3252
      9 O         139.0948  139.7885  168.6885 O.2     1  UNL1       -0.2702
     10 H         141.8297  139.4912  170.8289 H       1  UNL1        0.1453
     11 H         140.2772  138.8081  171.0037 H       1  UNL1        0.1453
     12 N         140.4341  139.9538  166.2019 N.pl3   1  UNL1       -0.2977
     13 H         140.4275  138.9797  166.3442 H       1  UNL1        0.1536
     14 C         137.7817  144.1204  164.5880 C.3     1  UNL1        0.0311
     15 C         138.1195  142.6648  164.4573 C.ar    1  UNL1       -0.0206
     16 C         137.4690  141.8368  163.3890 C.ar    1  UNL1       -0.0042
     17 C         137.8068  140.3812  163.2583 C.ar    1  UNL1        0.0009
     18 C         138.7951  139.7535  164.1959 C.ar    1  UNL1        0.0146
     19 C         139.4457  140.5815  165.2642 C.ar    1  UNL1        0.0491
     20 C         139.1079  142.0371  165.3949 C.ar    1  UNL1        0.0104
     21 N         144.3720  143.3419  166.0857 N.pl3   1  UNL1       -0.3032
     22 H         144.9003  144.0360  166.5423 H       1  UNL1        0.1496
     23 C         144.5377  143.1219  164.6112 C.3     1  UNL1        0.0875
     24 C         143.7501  143.9465  163.6367 C.3     1  UNL1        0.0224
     25 C         143.9158  143.7265  162.1621 C.3     1  UNL1        0.0188
     26 C         144.8691  142.6819  161.6622 C.3     1  UNL1        0.0687
     27 N         145.6567  141.8573  162.6368 N.3     1  UNL1       -0.2961
     28 C         145.4910  142.0773  164.1112 C.3     1  UNL1        0.0884
     29 H         146.6423  142.0125  162.4248 H       1  UNL1        0.1233
@<TRIPOS>BOND
     1    14    15    1
     2    15    16   ar
     3    16    17   ar
     4    17    18   ar
     5    18    19   ar
     6    19    12    1
     7    12     1    1
     8     1     2   ar
     9     2     3   ar
    10     3    21    1
    11    23    21    1
    12    23    24    1
    13    24    25    1
    14    25    26    1
    15    26    27    1
    16    27    28    1
    17     3     4   ar
    18     4     5   ar
    19     5     6   ar
    20     6     7    1
    21     7     8   am
    22     7     9    2
    23    19    20   ar
    24    20    15   ar
    25     6     1   ar
    26    28    23    1
    27    12    13    1
    28    21    22    1
    29    27    29    1
    30     8    10    1
    31     8    11    1
@<TRIPOS>MOLECULE
*****
 29 31 0 0 0
SMALL
GASTEIGER

@<TRIPOS>ATOM
      1 C         140.2402  139.7905  166.9999 C.ar    1  UNL1        0.1409
      2 N         141.3679  139.4097  166.0871 N.ar    1  UNL1       -0.1986
      3 C         142.7461  139.2048  166.6428 C.ar    1  UNL1        0.2181
      4 N         142.9965  139.3808  168.1112 N.ar    1  UNL1       -0.2120
      5 C         141.8688  139.7616  169.0240 C.ar    1  UNL1        0.1091
      6 C         140.4906  139.9665  168.4684 C.ar    1  UNL1        0.1040
      7 C         139.3629  140.3474  169.3812 C.2     1  UNL1        0.2470
      8 N         139.4808  141.5628  170.2522 N.am    1  UNL1       -0.3252
      9 O         138.1173  139.5127  169.4230 O.2     1  UNL1       -0.2702
     10 H         140.2984  142.1107  170.2248 H       1  UNL1        0.1453
     11 H         138.7407  141.8128  170.8513 H       1  UNL1        0.1453
     12 N         138.8620  139.9954  166.4443 N.pl3   1  UNL1       -0.2977
     13 H         138.1041  139.4816  166.8059 H       1  UNL1        0.1536
     14 C         139.4178  144.7850  164.5076 C.3     1  UNL1        0.0311
     15 C         138.9166  143.3780  164.3694 C.ar    1  UNL1       -0.0206
     16 C         138.1920  142.9587  163.1248 C.ar    1  UNL1       -0.0042
     17 C         137.6907  141.5517  162.9866 C.ar    1  UNL1        0.0009
     18 C         137.9141  140.5640  164.0931 C.ar    1  UNL1        0.0146
     19 C         138.6387  140.9832  165.3378 C.ar    1  UNL1        0.0491
     20 C         139.1399  142.3902  165.4759 C.ar    1  UNL1        0.0104
     21 N         143.8738  138.8239  165.7300 N.pl3   1  UNL1       -0.3032
     22 H         144.4113  138.0213  165.9201 H       1  UNL1        0.1496
     23 C         144.1824  139.6660  164.5276 C.3     1  UNL1        0.0875
     24 C         144.4439  141.1343  164.6873 C.3     1  UNL1        0.0224
     25 C         144.7525  141.9763  163.4848 C.3     1  UNL1        0.0188
     26 C         144.7998  141.3499  162.1227 C.3     1  UNL1        0.0687
     27 N         144.5383  139.8815  161.9630 N.3     1  UNL1       -0.2961
     28 C         144.2297  139.0396  163.1654 C.3     1  UNL1        0.0884
     29 H         145.3690  139.4801  161.5279 H       1  UNL1        0.1233
@<TRIPOS>BOND
     1    14    15    1
     2    15    16   ar
     3    16    17   ar
     4    17    18   ar
     5    18    19   ar
     6    19    12    1
     7    12     1    1
     8     1     2   ar
     9     2     3   ar
    10     3    21    1
    11    23    21    1
    12    23    24    1
    13    24    25    1
    14    25    26    1
    15    26    27    1
    16    27    28    1
    17     3     4   ar
    18     4     5   ar
    19     5     6   ar
    20     6     7    1
    21     7     8   am
    22     7     9    2
    23    19    20   ar
    24    20    15   ar
    25     6     1   ar
    26    28    23    1
    27    12    13    1
    28    21    22    1
    29    27    29    1
    30     8    10    1
    31     8    11    1
@<TRIPOS>MOLECULE
*****
 29 31 0 0 0
SMALL
GASTEIGER

@<TRIPOS>ATOM
      1 C         140.1008  139.7828  167.1784 C.ar    1  UNL1        0.1409
      2 N         141.1989  139.3988  166.2314 N.ar    1  UNL1       -0.1986
      3 C         142.6089  139.2757  166.7283 C.ar    1  UNL1        0.2181
      4 N         142.9207  139.5364  168.1722 N.ar    1  UNL1       -0.2120
      5 C         141.8225  139.9203  169.1192 C.ar    1  UNL1        0.1091
      6 C         140.4126  140.0435  168.6223 C.ar    1  UNL1        0.1040
      7 C         139.3145  140.4274  169.5693 C.2     1  UNL1        0.2470
      8 N         139.4224  141.6911  170.3700 N.am    1  UNL1       -0.3252
      9 O         138.1085  139.5475  169.7155 O.2     1  UNL1       -0.2702
     10 H         140.2139  142.2686  170.2741 H       1  UNL1        0.1453
     11 H         138.7017  141.9431  170.9916 H       1  UNL1        0.1453
     12 N         138.6909  139.9059  166.6815 N.pl3   1  UNL1       -0.2977
     13 H         137.9377  139.8016  167.3069 H       1  UNL1        0.1536
     14 C         138.1554  138.2232  161.7946 C.3     1  UNL1        0.0311
     15 C         138.1608  139.3468  162.7884 C.ar    1  UNL1       -0.0206
     16 C         137.9037  140.7525  162.3325 C.ar    1  UNL1       -0.0042
     17 C         137.9091  141.8760  163.3263 C.ar    1  UNL1        0.0009
     18 C         138.1714  141.5939  164.7759 C.ar    1  UNL1        0.0146
     19 C         138.4285  140.1882  165.2318 C.ar    1  UNL1        0.0491
     20 C         138.4231  139.0646  164.2380 C.ar    1  UNL1        0.0104
     21 N         143.7070  138.8918  165.7814 N.pl3   1  UNL1       -0.3032
     22 H         144.1581  138.0220  165.8774 H       1  UNL1        0.1496
     23 C         144.1177  139.8331  164.6881 C.3     1  UNL1        0.0875
     24 C         144.1605  141.3100  164.9467 C.3     1  UNL1        0.0224
     25 C         144.5712  142.2513  163.8534 C.3     1  UNL1        0.0188
     26 C         144.9392  141.7157  162.5015 C.3     1  UNL1        0.0687
     27 N         144.8965  140.2388  162.2429 N.3     1  UNL1       -0.2961
     28 C         144.4857  139.2975  163.3362 C.3     1  UNL1        0.0884
     29 H         145.8351  139.9631  161.9542 H       1  UNL1        0.1233
@<TRIPOS>BOND
     1    14    15    1
     2    15    16   ar
     3    16    17   ar
     4    17    18   ar
     5    18    19   ar
     6    19    12    1
     7    12     1    1
     8     1     2   ar
     9     2     3   ar
    10     3    21    1
    11    23    21    1
    12    23    24    1
    13    24    25    1
    14    25    26    1
    15    26    27    1
    16    27    28    1
    17     3     4   ar
    18     4     5   ar
    19     5     6   ar
    20     6     7    1
    21     7     8   am
    22     7     9    2
    23    19    20   ar
    24    20    15   ar
    25     6     1   ar
    26    28    23    1
    27    12    13    1
    28    21    22    1
    29    27    29    1
    30     8    10    1
    31     8    11    1
@<TRIPOS>MOLECULE
*****
 29 31 0 0 0
SMALL
GASTEIGER

@<TRIPOS>ATOM
      1 C         139.0991  141.5244  165.3813 C.ar    1  UNL1        0.1409
      2 N         139.6923  141.3568  166.7488 N.ar    1  UNL1       -0.1986
      3 C         139.5354  140.0565  167.4801 C.ar    1  UNL1        0.2181
      4 N         138.7853  138.9240  166.8439 N.ar    1  UNL1       -0.2120
      5 C         138.1921  139.0917  165.4764 C.ar    1  UNL1        0.1091
      6 C         138.3490  140.3919  164.7451 C.ar    1  UNL1        0.1040
      7 C         137.7558  140.5596  163.3776 C.2     1  UNL1        0.2470
      8 N         137.9359  139.4864  162.3452 N.am    1  UNL1       -0.3252
      9 O         136.9825  141.8005  163.0426 O.2     1  UNL1       -0.2702
     10 H         138.4435  138.6720  162.5651 H       1  UNL1        0.1453
     11 H         137.5466  139.5965  161.4477 H       1  UNL1        0.1453
     12 N         139.2560  142.8246  164.6500 N.pl3   1  UNL1       -0.2977
     13 H         138.4626  143.2933  164.3034 H       1  UNL1        0.1536
     14 C         144.4276  142.3445  164.8049 C.3     1  UNL1        0.0311
     15 C         143.2075  143.1707  164.5242 C.ar    1  UNL1       -0.0206
     16 C         143.3531  144.5830  164.0405 C.ar    1  UNL1       -0.0042
     17 C         142.1331  145.4092  163.7598 C.ar    1  UNL1        0.0009
     18 C         140.7674  144.8231  163.9630 C.ar    1  UNL1        0.0146
     19 C         140.6218  143.4108  164.4468 C.ar    1  UNL1        0.0491
     20 C         141.8419  142.5846  164.7274 C.ar    1  UNL1        0.0104
     21 N         140.1286  139.8888  168.8476 N.pl3   1  UNL1       -0.3032
     22 H         139.9049  139.0964  169.3874 H       1  UNL1        0.1496
     23 C         141.0625  140.9284  169.3926 C.3     1  UNL1        0.0875
     24 C         142.4771  140.9987  168.8988 C.3     1  UNL1        0.0224
     25 C         143.4110  142.0383  169.4438 C.3     1  UNL1        0.0188
     26 C         142.9303  143.0076  170.4827 C.3     1  UNL1        0.0687
     27 N         141.5156  142.9373  170.9765 N.3     1  UNL1       -0.2961
     28 C         140.5817  141.8977  170.4315 C.3     1  UNL1        0.0884
     29 H         141.0910  143.8446  170.7839 H       1  UNL1        0.1233
@<TRIPOS>BOND
     1    14    15    1
     2    15    16   ar
     3    16    17   ar
     4    17    18   ar
     5    18    19   ar
     6    19    12    1
     7    12     1    1
     8     1     2   ar
     9     2     3   ar
    10     3    21    1
    11    23    21    1
    12    23    24    1
    13    24    25    1
    14    25    26    1
    15    26    27    1
    16    27    28    1
    17     3     4   ar
    18     4     5   ar
    19     5     6   ar
    20     6     7    1
    21     7     8   am
    22     7     9    2
    23    19    20   ar
    24    20    15   ar
    25     6     1   ar
    26    28    23    1
    27    12    13    1
    28    21    22    1
    29    27    29    1
    30     8    10    1
    31     8    11    1
@<TRIPOS>MOLECULE
*****
 29 31 0 0 0
SMALL
GASTEIGER

@<TRIPOS>ATOM
      1 C         141.4279  141.7628  167.7697 C.ar    1  UNL1        0.1409
      2 N         140.3596  140.9647  167.0830 N.ar    1  UNL1       -0.1986
      3 C         139.5462  139.9738  167.8618 C.ar    1  UNL1        0.2181
      4 N         139.8012  139.7810  169.3273 N.ar    1  UNL1       -0.2120
      5 C         140.8695  140.5791  170.0141 C.ar    1  UNL1        0.1091
      6 C         141.6829  141.5700  169.2353 C.ar    1  UNL1        0.1040
      7 C         142.7513  142.3681  169.9220 C.2     1  UNL1        0.2470
      8 N         142.5375  142.8578  171.3236 N.am    1  UNL1       -0.3252
      9 O         144.0334  142.6766  169.2071 O.2     1  UNL1       -0.2702
     10 H         141.6960  142.6553  171.7928 H       1  UNL1        0.1453
     11 H         143.2387  143.3816  171.7744 H       1  UNL1        0.1453
     12 N         142.2413  142.7537  166.9909 N.pl3   1  UNL1       -0.2977
     13 H         142.1254  143.7184  167.1492 H       1  UNL1        0.1536
     14 C         144.2359  138.9154  164.1117 C.3     1  UNL1        0.0311
     15 C         144.2286  140.3555  164.5313 C.ar    1  UNL1       -0.0206
     16 C         145.2114  141.3166  163.9310 C.ar    1  UNL1       -0.0042
     17 C         145.2042  142.7567  164.3506 C.ar    1  UNL1        0.0009
     18 C         144.2142  143.2357  165.3706 C.ar    1  UNL1        0.0146
     19 C         143.2314  142.2746  165.9709 C.ar    1  UNL1        0.0491
     20 C         143.2386  140.8345  165.5513 C.ar    1  UNL1        0.0104
     21 N         138.4778  139.1757  167.1751 N.pl3   1  UNL1       -0.3032
     22 H         137.7668  138.7470  167.7042 H       1  UNL1        0.1496
     23 C         138.4928  139.0306  165.6821 C.3     1  UNL1        0.0875
     24 C         138.9510  137.7459  165.0580 C.3     1  UNL1        0.0224
     25 C         138.9660  137.6009  163.5650 C.3     1  UNL1        0.0188
     26 C         138.5229  138.7406  162.6963 C.3     1  UNL1        0.0687
     27 N         138.0647  140.0253  163.3205 N.3     1  UNL1       -0.2961
     28 C         138.0497  140.1703  164.8134 C.3     1  UNL1        0.0884
     29 H         137.1096  140.1844  162.9996 H       1  UNL1        0.1233
@<TRIPOS>BOND
     1    14    15    1
     2    15    16   ar
     3    16    17   ar
     4    17    18   ar
     5    18    19   ar
     6    19    12    1
     7    12     1    1
     8     1     2   ar
     9     2     3   ar
    10     3    21    1
    11    23    21    1
    12    23    24    1
    13    24    25    1
    14    25    26    1
    15    26    27    1
    16    27    28    1
    17     3     4   ar
    18     4     5   ar
    19     5     6   ar
    20     6     7    1
    21     7     8   am
    22     7     9    2
    23    19    20   ar
    24    20    15   ar
    25     6     1   ar
    26    28    23    1
    27    12    13    1
    28    21    22    1
    29    27    29    1
    30     8    10    1
    31     8    11    1
@<TRIPOS>MOLECULE
*****
 29 31 0 0 0
SMALL
GASTEIGER

@<TRIPOS>ATOM
      1 C         140.0237  140.0608  165.3566 C.ar    1  UNL1        0.1409
      2 N         140.2831  140.3382  166.8077 N.ar    1  UNL1       -0.1986
      3 C         139.3954  139.7367  167.8567 C.ar    1  UNL1        0.2181
      4 N         138.2484  138.8578  167.4545 N.ar    1  UNL1       -0.2120
      5 C         137.9890  138.5804  166.0034 C.ar    1  UNL1        0.1091
      6 C         138.8765  139.1819  164.9545 C.ar    1  UNL1        0.1040
      7 C         138.6171  138.9045  163.5034 C.2     1  UNL1        0.2470
      8 N         138.7098  137.5019  162.9796 N.am    1  UNL1       -0.3252
      9 O         138.2649  140.0296  162.5760 O.2     1  UNL1       -0.2702
     10 H         138.9409  136.7635  163.5883 H       1  UNL1        0.1453
     11 H         138.5395  137.3199  162.0272 H       1  UNL1        0.1453
     12 N         140.9112  140.6623  164.3077 N.pl3   1  UNL1       -0.2977
     13 H         141.4310  140.0787  163.7089 H       1  UNL1        0.1536
     14 C         143.7493  144.9293  163.4484 C.3     1  UNL1        0.0311
     15 C         142.4261  144.2865  163.7413 C.ar    1  UNL1       -0.0206
     16 C         141.1986  145.1344  163.8976 C.ar    1  UNL1       -0.0042
     17 C         139.8754  144.4916  164.1906 C.ar    1  UNL1        0.0009
     18 C         139.7796  143.0009  164.3273 C.ar    1  UNL1        0.0146
     19 C         141.0070  142.1531  164.1710 C.ar    1  UNL1        0.0491
     20 C         142.3303  142.7958  163.8780 C.ar    1  UNL1        0.0104
     21 N         139.6549  140.0141  169.3078 N.pl3   1  UNL1       -0.3032
     22 H         139.1542  139.5245  169.9998 H       1  UNL1        0.1496
     23 C         140.6773  141.0375  169.7046 C.3     1  UNL1        0.0875
     24 C         140.3469  142.4984  169.6233 C.3     1  UNL1        0.0224
     25 C         141.3693  143.5218  170.0201 C.3     1  UNL1        0.0188
     26 C         142.7221  143.0843  170.4982 C.3     1  UNL1        0.0687
     27 N         143.0524  141.6233  170.5795 N.3     1  UNL1       -0.2961
     28 C         142.0301  140.6000  170.1827 C.3     1  UNL1        0.0884
     29 H         143.3002  141.4310  171.5501 H       1  UNL1        0.1233
@<TRIPOS>BOND
     1    14    15    1
     2    15    16   ar
     3    16    17   ar
     4    17    18   ar
     5    18    19   ar
     6    19    12    1
     7    12     1    1
     8     1     2   ar
     9     2     3   ar
    10     3    21    1
    11    23    21    1
    12    23    24    1
    13    24    25    1
    14    25    26    1
    15    26    27    1
    16    27    28    1
    17     3     4   ar
    18     4     5   ar
    19     5     6   ar
    20     6     7    1
    21     7     8   am
    22     7     9    2
    23    19    20   ar
    24    20    15   ar
    25     6     1   ar
    26    28    23    1
    27    12    13    1
    28    21    22    1
    29    27    29    1
    30     8    10    1
    31     8    11    1
@<TRIPOS>MOLECULE
*****
 29 31 0 0 0
SMALL
GASTEIGER

@<TRIPOS>ATOM
      1 C         140.5851  140.4070  167.6028 C.ar    1  UNL1        0.1409
      2 N         141.4936  140.9611  166.5456 N.ar    1  UNL1       -0.1986
      3 C         142.5737  141.9329  166.9189 C.ar    1  UNL1        0.2181
      4 N         142.7453  142.3504  168.3493 N.ar    1  UNL1       -0.2120
      5 C         141.8368  141.7963  169.4065 C.ar    1  UNL1        0.1091
      6 C         140.7568  140.8247  169.0333 C.ar    1  UNL1        0.1040
      7 C         139.8483  140.2706  170.0905 C.2     1  UNL1        0.2470
      8 N         140.3658  140.0423  171.4797 N.am    1  UNL1       -0.3252
      9 O         138.4222  139.9447  169.7584 O.2     1  UNL1       -0.2702
     10 H         141.3018  140.2562  171.6977 H       1  UNL1        0.1453
     11 H         139.7696  139.6786  172.1736 H       1  UNL1        0.1453
     12 N         139.5051  139.4354  167.2296 N.pl3   1  UNL1       -0.2977
     13 H         139.0664  138.8956  167.9263 H       1  UNL1        0.1536
     14 C         137.3377  141.4127  162.9409 C.3     1  UNL1        0.0311
     15 C         138.0098  140.2748  163.6506 C.ar    1  UNL1       -0.0206
     16 C         138.2703  138.9878  162.9256 C.ar    1  UNL1       -0.0042
     17 C         138.9424  137.8500  163.6352 C.ar    1  UNL1        0.0009
     18 C         139.3540  137.9991  165.0699 C.ar    1  UNL1        0.0146
     19 C         139.0935  139.2862  165.7949 C.ar    1  UNL1        0.0491
     20 C         138.4214  140.4240  165.0852 C.ar    1  UNL1        0.0104
     21 N         143.4821  142.4870  165.8617 N.pl3   1  UNL1       -0.3032
     22 H         144.4363  142.2444  165.8560 H       1  UNL1        0.1496
     23 C         142.9368  143.4107  164.8132 C.3     1  UNL1        0.0875
     24 C         141.4584  143.6441  164.7147 C.3     1  UNL1        0.0224
     25 C         140.9131  144.5678  163.6661 C.3     1  UNL1        0.0188
     26 C         141.8463  145.2582  162.7161 C.3     1  UNL1        0.0687
     27 N         143.3248  145.0248  162.8146 N.3     1  UNL1       -0.2961
     28 C         143.8700  144.1011  163.8631 C.3     1  UNL1        0.0884
     29 H         143.7569  145.9354  162.9710 H       1  UNL1        0.1233
@<TRIPOS>BOND
     1    14    15    1
     2    15    16   ar
     3    16    17   ar
     4    17    18   ar
     5    18    19   ar
     6    19    12    1
     7    12     1    1
     8     1     2   ar
     9     2     3   ar
    10     3    21    1
    11    23    21    1
    12    23    24    1
    13    24    25    1
    14    25    26    1
    15    26    27    1
    16    27    28    1
    17     3     4   ar
    18     4     5   ar
    19     5     6   ar
    20     6     7    1
    21     7     8   am
    22     7     9    2
    23    19    20   ar
    24    20    15   ar
    25     6     1   ar
    26    28    23    1
    27    12    13    1
    28    21    22    1
    29    27    29    1
    30     8    10    1
    31     8    11    1
@<TRIPOS>MOLECULE
*****
 29 31 0 0 0
SMALL
GASTEIGER

@<TRIPOS>ATOM
      1 C         140.9130  139.0090  165.6874 C.ar    1  UNL1        0.1409
      2 N         141.1235  139.5301  167.0782 N.ar    1  UNL1       -0.1986
      3 C         142.4936  139.5065  167.6886 C.ar    1  UNL1        0.2181
      4 N         143.6530  138.9619  166.9082 N.ar    1  UNL1       -0.2120
      5 C         143.4425  138.4409  165.5174 C.ar    1  UNL1        0.1091
      6 C         142.0726  138.4644  164.9070 C.ar    1  UNL1        0.1040
      7 C         141.8621  137.9434  163.5163 C.2     1  UNL1        0.2470
      8 N         142.7218  138.4391  162.3915 N.am    1  UNL1       -0.3252
      9 O         140.7917  136.9267  163.2503 O.2     1  UNL1       -0.2702
     10 H         143.4243  139.1064  162.5661 H       1  UNL1        0.1453
     11 H         142.5836  138.0972  161.4787 H       1  UNL1        0.1453
     12 N         139.5431  139.0326  165.0771 N.pl3   1  UNL1       -0.2977
     13 H         139.0356  138.1953  164.9739 H       1  UNL1        0.1536
     14 C         139.2056  144.2041  165.4542 C.3     1  UNL1        0.0311
     15 C         138.7775  142.9177  164.8124 C.ar    1  UNL1       -0.0206
     16 C         137.7524  142.9306  163.7173 C.ar    1  UNL1       -0.0042
     17 C         137.3243  141.6443  163.0755 C.ar    1  UNL1        0.0009
     18 C         137.9211  140.3449  163.5287 C.ar    1  UNL1        0.0146
     19 C         138.9461  140.3320  164.6238 C.ar    1  UNL1        0.0491
     20 C         139.3743  141.6184  165.2656 C.ar    1  UNL1        0.0104
     21 N         142.7041  140.0275  169.0793 N.pl3   1  UNL1       -0.3032
     22 H         143.4347  139.6697  169.6337 H       1  UNL1        0.1496
     23 C         141.8013  141.0938  169.6254 C.3     1  UNL1        0.0875
     24 C         141.3537  142.2215  168.7436 C.3     1  UNL1        0.0224
     25 C         140.4509  143.2878  169.2897 C.3     1  UNL1        0.0188
     26 C         139.9958  143.2262  170.7177 C.3     1  UNL1        0.0687
     27 N         140.4434  142.0983  171.5995 N.3     1  UNL1       -0.2961
     28 C         141.3462  141.0321  171.0534 C.3     1  UNL1        0.0884
     29 H         139.5996  141.6294  171.9289 H       1  UNL1        0.1233
@<TRIPOS>BOND
     1    14    15    1
     2    15    16   ar
     3    16    17   ar
     4    17    18   ar
     5    18    19   ar
     6    19    12    1
     7    12     1    1
     8     1     2   ar
     9     2     3   ar
    10     3    21    1
    11    23    21    1
    12    23    24    1
    13    24    25    1
    14    25    26    1
    15    26    27    1
    16    27    28    1
    17     3     4   ar
    18     4     5   ar
    19     5     6   ar
    20     6     7    1
    21     7     8   am
    22     7     9    2
    23    19    20   ar
    24    20    15   ar
    25     6     1   ar
    26    28    23    1
    27    12    13    1
    28    21    22    1
    29    27    29    1
    30     8    10    1
    31     8    11    1
