@<TRIPOS>MOLECULE
*****
 26 28 0 0 0
SMALL
GASTEIGER

@<TRIPOS>ATOM
      1 C         143.6477  141.6624  163.2382 C.ar    1  UNL1        0.2424
      2 C         144.8826  140.8509  163.4957 C.ar    1  UNL1        0.0641
      3 C         144.8167  139.6477  164.3890 C.ar    1  UNL1        0.0674
      4 C         143.5158  139.2560  165.0248 C.ar    1  UNL1        0.2807
      5 O         143.4498  138.0528  165.9180 O.2     1  UNL1       -0.2651
      6 N         142.2808  140.0676  164.7673 N.ar    1  UNL1       -0.1916
      7 N         142.3468  141.2708  163.8740 N.ar    1  UNL1       -0.1248
      8 C         140.9799  139.6759  165.4031 C.ar    1  UNL1        0.0885
      9 C         140.0127  138.8052  164.6572 C.ar    1  UNL1        0.0217
     10 C         138.7118  138.4136  165.2930 C.ar    1  UNL1        0.0335
     11 C         138.3781  138.8926  166.6748 C.ar    1  UNL1        0.1675
     12 F         137.0772  138.5009  167.3105 F       1  UNL1       -0.2018
     13 C         139.3453  139.7633  167.4207 C.ar    1  UNL1        0.1689
     14 F         139.0117  140.2423  168.8024 F       1  UNL1       -0.2017
     15 C         140.6463  140.1549  166.7848 C.ar    1  UNL1        0.0512
     16 O         143.7137  142.8657  162.3450 O.3     1  UNL1       -0.4592
     17 C         144.1816  144.1815  162.8925 C.3     1  UNL1        0.2086
     18 C         143.3469  144.9136  163.9011 C.3     1  UNL1        0.0647
     19 C         141.9562  145.3510  163.5481 C.3     1  UNL1        0.0759
     20 C         137.4893  141.3467  163.4371 C.3     1  UNL1        0.0001
     21 C         138.6060  142.3477  163.4648 C.3     1  UNL1        0.0028
     22 C         139.0991  142.8852  164.7755 C.3     1  UNL1        0.0174
     23 C         140.2158  143.8863  164.8033 C.3     1  UNL1        0.0721
     24 N         140.8395  144.3499  163.5203 N.3     1  UNL1       -0.2726
     25 C         140.3464  143.8125  162.2096 C.3     1  UNL1        0.0721
     26 C         139.2297  142.8114  162.1819 C.3     1  UNL1        0.0174
@<TRIPOS>BOND
     1    20    21    1
     2    21    22    1
     3    22    23    1
     4    23    24    1
     5    24    19    1
     6    19    18    1
     7    18    17    1
     8    17    16    1
     9    16     1    1
    10     1     2   ar
    11     2     3   ar
    12     3     4   ar
    13     4     5    2
    14     4     6   ar
    15     6     8    1
    16     8     9   ar
    17     9    10   ar
    18    10    11   ar
    19    11    12    1
    20    11    13   ar
    21    13    14    1
    22    13    15   ar
    23     6     7   ar
    24    24    25    1
    25    25    26    1
    26    26    21    1
    27     7     1   ar
    28    15     8   ar
@<TRIPOS>MOLECULE
*****
 26 28 0 0 0
SMALL
GASTEIGER

@<TRIPOS>ATOM
      1 C         140.7620  143.8887  163.0154 C.ar    1  UNL1        0.2424
      2 C         141.6180  145.1096  163.1784 C.ar    1  UNL1        0.0641
      3 C         142.9006  145.0286  163.9521 C.ar    1  UNL1        0.0674
      4 C         143.3271  143.7266  164.5627 C.ar    1  UNL1        0.2807
      5 O         144.6096  143.6455  165.3364 O.2     1  UNL1       -0.2651
      6 N         142.4710  142.5056  164.3998 N.ar    1  UNL1       -0.1916
      7 N         141.1885  142.5867  163.6261 N.ar    1  UNL1       -0.1248
      8 C         142.8975  141.2037  165.0104 C.ar    1  UNL1        0.0885
      9 C         143.8385  140.3004  164.2697 C.ar    1  UNL1        0.0217
     10 C         144.2650  138.9985  164.8804 C.ar    1  UNL1        0.0335
     11 C         143.7506  138.5997  166.2319 C.ar    1  UNL1        0.1675
     12 F         144.1771  137.2978  166.8425 F       1  UNL1       -0.2018
     13 C         142.8096  139.5030  166.9726 C.ar    1  UNL1        0.1689
     14 F         142.2951  139.1043  168.3240 F       1  UNL1       -0.2017
     15 C         142.3831  140.8050  166.3618 C.ar    1  UNL1        0.0512
     16 O         139.4795  143.9698  162.2417 O.3     1  UNL1       -0.4592
     17 C         138.1787  144.1604  162.9640 C.3     1  UNL1        0.2086
     18 C         137.6515  143.0774  163.8579 C.3     1  UNL1        0.0647
     19 C         137.3621  141.7166  163.2972 C.3     1  UNL1        0.0759
     20 C         141.0273  137.1263  164.5199 C.3     1  UNL1        0.0001
     21 C         140.1110  138.2739  164.2142 C.3     1  UNL1        0.0028
     22 C         139.9949  138.7874  162.8097 C.3     1  UNL1        0.0174
     23 C         139.0786  139.9350  162.5040 C.3     1  UNL1        0.0721
     24 N         138.2784  140.5691  163.6029 N.3     1  UNL1       -0.2726
     25 C         138.3945  140.0556  165.0074 C.3     1  UNL1        0.0721
     26 C         139.3108  138.9080  165.3131 C.3     1  UNL1        0.0174
@<TRIPOS>BOND
     1    20    21    1
     2    21    22    1
     3    22    23    1
     4    23    24    1
     5    24    19    1
     6    19    18    1
     7    18    17    1
     8    17    16    1
     9    16     1    1
    10     1     2   ar
    11     2     3   ar
    12     3     4   ar
    13     4     5    2
    14     4     6   ar
    15     6     8    1
    16     8     9   ar
    17     9    10   ar
    18    10    11   ar
    19    11    12    1
    20    11    13   ar
    21    13    14    1
    22    13    15   ar
    23     6     7   ar
    24    24    25    1
    25    25    26    1
    26    26    21    1
    27     7     1   ar
    28    15     8   ar
@<TRIPOS>MOLECULE
*****
 26 28 0 0 0
SMALL
GASTEIGER

@<TRIPOS>ATOM
      1 C         142.8680  140.4547  164.1988 C.ar    1  UNL1        0.2424
      2 C         143.6609  139.2035  164.4349 C.ar    1  UNL1        0.0641
      3 C         143.7288  138.6068  165.8095 C.ar    1  UNL1        0.0674
      4 C         143.0038  139.2612  166.9479 C.ar    1  UNL1        0.2807
      5 O         143.0716  138.6645  168.3224 O.2     1  UNL1       -0.2651
      6 N         142.2108  140.5125  166.7118 N.ar    1  UNL1       -0.1916
      7 N         142.1429  141.1092  165.3373 N.ar    1  UNL1       -0.1248
      8 C         141.4858  141.1669  167.8502 C.ar    1  UNL1        0.0885
      9 C         142.0018  142.4510  168.4289 C.ar    1  UNL1        0.0217
     10 C         141.2767  143.1054  169.5673 C.ar    1  UNL1        0.0335
     11 C         140.0357  142.4757  170.1271 C.ar    1  UNL1        0.1675
     12 F         139.3107  143.1302  171.2655 F       1  UNL1       -0.2018
     13 C         139.5197  141.1916  169.5484 C.ar    1  UNL1        0.1689
     14 F         138.2787  140.5620  170.1082 F       1  UNL1       -0.2017
     15 C         140.2448  140.5372  168.4100 C.ar    1  UNL1        0.0512
     16 O         142.8001  141.0515  162.8243 O.3     1  UNL1       -0.4592
     17 C         141.5209  141.6629  162.3345 C.3     1  UNL1        0.2086
     18 C         140.4667  140.7974  161.7104 C.3     1  UNL1        0.0647
     19 C         140.2857  139.3828  162.1754 C.3     1  UNL1        0.0759
     20 C         137.4177  138.2611  167.3248 C.3     1  UNL1        0.0001
     21 C         138.1347  138.5415  166.0374 C.3     1  UNL1        0.0028
     22 C         138.8360  137.4314  165.3123 C.3     1  UNL1        0.0174
     23 C         139.5530  137.7119  164.0250 C.3     1  UNL1        0.0721
     24 N         139.5687  139.1024  163.4627 N.3     1  UNL1       -0.2726
     25 C         138.8674  140.2125  164.1878 C.3     1  UNL1        0.0721
     26 C         138.1504  139.9320  165.4752 C.3     1  UNL1        0.0174
@<TRIPOS>BOND
     1    20    21    1
     2    21    22    1
     3    22    23    1
     4    23    24    1
     5    24    19    1
     6    19    18    1
     7    18    17    1
     8    17    16    1
     9    16     1    1
    10     1     2   ar
    11     2     3   ar
    12     3     4   ar
    13     4     5    2
    14     4     6   ar
    15     6     8    1
    16     8     9   ar
    17     9    10   ar
    18    10    11   ar
    19    11    12    1
    20    11    13   ar
    21    13    14    1
    22    13    15   ar
    23     6     7   ar
    24    24    25    1
    25    25    26    1
    26    26    21    1
    27     7     1   ar
    28    15     8   ar
@<TRIPOS>MOLECULE
*****
 26 28 0 0 0
SMALL
GASTEIGER

@<TRIPOS>ATOM
      1 C         139.6667  139.4807  164.7393 C.ar    1  UNL1        0.2424
      2 C         138.4925  138.7011  165.2525 C.ar    1  UNL1        0.0641
      3 C         138.1347  138.7553  166.7082 C.ar    1  UNL1        0.0674
      4 C         138.9511  139.5890  167.6507 C.ar    1  UNL1        0.2807
      5 O         138.5932  139.6432  169.1063 O.2     1  UNL1       -0.2651
      6 N         140.1254  140.3687  167.1375 N.ar    1  UNL1       -0.1916
      7 N         140.4832  140.3145  165.6818 N.ar    1  UNL1       -0.1248
      8 C         140.9418  141.2024  168.0799 C.ar    1  UNL1        0.0885
      9 C         142.2979  140.7318  168.5151 C.ar    1  UNL1        0.0217
     10 C         143.1143  141.5656  169.4576 C.ar    1  UNL1        0.0335
     11 C         142.5746  142.8700  169.9650 C.ar    1  UNL1        0.1675
     12 F         143.3910  143.7037  170.9074 F       1  UNL1       -0.2018
     13 C         141.2184  143.3405  169.5298 C.ar    1  UNL1        0.1689
     14 F         140.6787  144.6448  170.0371 F       1  UNL1       -0.2017
     15 C         140.4020  142.5067  168.5872 C.ar    1  UNL1        0.0512
     16 O         140.0246  139.4265  163.2836 O.3     1  UNL1       -0.4592
     17 C         141.4584  139.5442  162.8588 C.3     1  UNL1        0.2086
     18 C         141.9174  140.7501  162.0938 C.3     1  UNL1        0.0647
     19 C         140.9303  141.8083  161.6992 C.3     1  UNL1        0.0759
     20 C         138.2307  145.1149  165.9157 C.3     1  UNL1        0.0001
     21 C         138.9056  144.2883  164.8616 C.3     1  UNL1        0.0028
     22 C         138.0868  143.5986  163.8109 C.3     1  UNL1        0.0174
     23 C         138.7617  142.7719  162.7568 C.3     1  UNL1        0.0721
     24 N         140.2554  142.6350  162.7533 N.3     1  UNL1       -0.2726
     25 C         141.0742  143.3247  163.8039 C.3     1  UNL1        0.0721
     26 C         140.3993  144.1513  164.8581 C.3     1  UNL1        0.0174
@<TRIPOS>BOND
     1    20    21    1
     2    21    22    1
     3    22    23    1
     4    23    24    1
     5    24    19    1
     6    19    18    1
     7    18    17    1
     8    17    16    1
     9    16     1    1
    10     1     2   ar
    11     2     3   ar
    12     3     4   ar
    13     4     5    2
    14     4     6   ar
    15     6     8    1
    16     8     9   ar
    17     9    10   ar
    18    10    11   ar
    19    11    12    1
    20    11    13   ar
    21    13    14    1
    22    13    15   ar
    23     6     7   ar
    24    24    25    1
    25    25    26    1
    26    26    21    1
    27     7     1   ar
    28    15     8   ar
@<TRIPOS>MOLECULE
*****
 26 28 0 0 0
SMALL
GASTEIGER

@<TRIPOS>ATOM
      1 C         141.4735  139.9012  163.1971 C.ar    1  UNL1        0.2424
      2 C         141.4951  140.9829  162.1581 C.ar    1  UNL1        0.0641
      3 C         141.5920  142.4208  162.5743 C.ar    1  UNL1        0.0674
      4 C         141.6671  142.7769  164.0295 C.ar    1  UNL1        0.2807
      5 O         141.7639  144.2148  164.4457 O.2     1  UNL1       -0.2651
      6 N         141.6454  141.6952  165.0685 N.ar    1  UNL1       -0.1916
      7 N         141.5486  140.2573  164.6523 N.ar    1  UNL1       -0.1248
      8 C         141.7205  142.0513  166.5236 C.ar    1  UNL1        0.0885
      9 C         140.4691  142.3884  167.2788 C.ar    1  UNL1        0.0217
     10 C         140.5442  142.7446  168.7340 C.ar    1  UNL1        0.0335
     11 C         141.8708  142.7637  169.4340 C.ar    1  UNL1        0.1675
     12 F         141.9459  143.1198  170.8891 F       1  UNL1       -0.2018
     13 C         143.1222  142.4266  168.6787 C.ar    1  UNL1        0.1689
     14 F         144.4487  142.4456  169.3787 F       1  UNL1       -0.2017
     15 C         143.0470  142.0704  167.2235 C.ar    1  UNL1        0.0512
     16 O         141.3766  138.4634  162.7808 O.3     1  UNL1       -0.4592
     17 C         140.3397  138.0395  161.7833 C.3     1  UNL1        0.2086
     18 C         138.9054  137.9080  162.2023 C.3     1  UNL1        0.0647
     19 C         137.9138  138.9686  161.8258 C.3     1  UNL1        0.0759
     20 C         137.9949  144.2787  164.6181 C.3     1  UNL1        0.0001
     21 C         137.9746  142.9511  163.9200 C.3     1  UNL1        0.0028
     22 C         137.8936  142.8919  162.4234 C.3     1  UNL1        0.0174
     23 C         137.8733  141.5644  161.7253 C.3     1  UNL1        0.0721
     24 N         137.9340  140.2961  162.5239 N.3     1  UNL1       -0.2726
     25 C         138.0150  140.3553  164.0205 C.3     1  UNL1        0.0721
     26 C         138.0353  141.6829  164.7186 C.3     1  UNL1        0.0174
@<TRIPOS>BOND
     1    20    21    1
     2    21    22    1
     3    22    23    1
     4    23    24    1
     5    24    19    1
     6    19    18    1
     7    18    17    1
     8    17    16    1
     9    16     1    1
    10     1     2   ar
    11     2     3   ar
    12     3     4   ar
    13     4     5    2
    14     4     6   ar
    15     6     8    1
    16     8     9   ar
    17     9    10   ar
    18    10    11   ar
    19    11    12    1
    20    11    13   ar
    21    13    14    1
    22    13    15   ar
    23     6     7   ar
    24    24    25    1
    25    25    26    1
    26    26    21    1
    27     7     1   ar
    28    15     8   ar
@<TRIPOS>MOLECULE
*****
 26 28 0 0 0
SMALL
GASTEIGER

@<TRIPOS>ATOM
      1 C         140.9167  144.6948  163.9815 C.ar    1  UNL1        0.2424
      2 C         142.1627  145.2702  163.3762 C.ar    1  UNL1        0.0641
      3 C         143.5042  144.7111  163.7477 C.ar    1  UNL1        0.0674
      4 C         143.5996  143.5767  164.7244 C.ar    1  UNL1        0.2807
      5 O         144.9410  143.0176  165.0958 O.2     1  UNL1       -0.2651
      6 N         142.3535  143.0013  165.3297 N.ar    1  UNL1       -0.1916
      7 N         141.0121  143.5604  164.9583 N.ar    1  UNL1       -0.1248
      8 C         142.4489  141.8669  166.3064 C.ar    1  UNL1        0.0885
      9 C         142.1588  140.4651  165.8584 C.ar    1  UNL1        0.0217
     10 C         142.2542  139.3307  166.8351 C.ar    1  UNL1        0.0335
     11 C         142.6398  139.5981  168.2599 C.ar    1  UNL1        0.1675
     12 F         142.7352  138.4637  169.2366 F       1  UNL1       -0.2018
     13 C         142.9299  140.9999  168.7079 C.ar    1  UNL1        0.1689
     14 F         143.3155  141.2674  170.1326 F       1  UNL1       -0.2017
     15 C         142.8345  142.1344  167.7311 C.ar    1  UNL1        0.0512
     16 O         139.5753  145.2539  163.6101 O.3     1  UNL1       -0.4592
     17 C         138.3240  144.5301  164.0107 C.3     1  UNL1        0.2086
     18 C         137.6707  143.5762  163.0549 C.3     1  UNL1        0.0647
     19 C         138.4462  142.4154  162.5062 C.3     1  UNL1        0.0759
     20 C         138.7458  137.2794  165.5936 C.3     1  UNL1        0.0001
     21 C         138.6709  138.5634  164.8217 C.3     1  UNL1        0.0028
     22 C         138.3226  139.8419  165.5247 C.3     1  UNL1        0.0174
     23 C         138.2477  141.1259  164.7529 C.3     1  UNL1        0.0721
     24 N         138.5211  141.1314  163.2781 N.3     1  UNL1       -0.2726
     25 C         138.8694  139.8530  162.5751 C.3     1  UNL1        0.0721
     26 C         138.9443  138.5690  163.3469 C.3     1  UNL1        0.0174
@<TRIPOS>BOND
     1    20    21    1
     2    21    22    1
     3    22    23    1
     4    23    24    1
     5    24    19    1
     6    19    18    1
     7    18    17    1
     8    17    16    1
     9    16     1    1
    10     1     2   ar
    11     2     3   ar
    12     3     4   ar
    13     4     5    2
    14     4     6   ar
    15     6     8    1
    16     8     9   ar
    17     9    10   ar
    18    10    11   ar
    19    11    12    1
    20    11    13   ar
    21    13    14    1
    22    13    15   ar
    23     6     7   ar
    24    24    25    1
    25    25    26    1
    26    26    21    1
    27     7     1   ar
    28    15     8   ar
@<TRIPOS>MOLECULE
*****
 26 28 0 0 0
SMALL
GASTEIGER

@<TRIPOS>ATOM
      1 C         139.5436  140.3751  164.0839 C.ar    1  UNL1        0.2424
      2 C         140.1175  141.0924  162.8982 C.ar    1  UNL1        0.0641
      3 C         141.1411  142.1707  163.0972 C.ar    1  UNL1        0.0674
      4 C         141.5908  142.5315  164.4819 C.ar    1  UNL1        0.2807
      5 O         142.6145  143.6097  164.6809 O.2     1  UNL1       -0.2651
      6 N         141.0169  141.8141  165.6677 N.ar    1  UNL1       -0.1916
      7 N         139.9933  140.7359  165.4687 N.ar    1  UNL1       -0.1248
      8 C         141.4667  142.1750  167.0525 C.ar    1  UNL1        0.0885
      9 C         142.8600  141.8439  167.4986 C.ar    1  UNL1        0.0217
     10 C         143.3097  142.2048  168.8833 C.ar    1  UNL1        0.0335
     11 C         142.3661  142.8967  169.8220 C.ar    1  UNL1        0.1675
     12 F         142.8159  143.2576  171.2067 F       1  UNL1       -0.2018
     13 C         140.9728  143.2278  169.3758 C.ar    1  UNL1        0.1689
     14 F         140.0292  143.9197  170.3143 F       1  UNL1       -0.2017
     15 C         140.5231  142.8669  167.9910 C.ar    1  UNL1        0.0512
     16 O         138.5199  139.2968  163.8849 O.3     1  UNL1       -0.4592
     17 C         138.9532  137.9130  163.5009 C.3     1  UNL1        0.2086
     18 C         140.2574  137.3689  164.0036 C.3     1  UNL1        0.0647
     19 C         141.4578  137.3477  163.1044 C.3     1  UNL1        0.0759
     20 C         145.7464  141.4974  163.7272 C.3     1  UNL1        0.0001
     21 C         144.6743  140.4600  163.5715 C.3     1  UNL1        0.0028
     22 C         144.0942  139.7931  164.7834 C.3     1  UNL1        0.0174
     23 C         143.0221  138.7557  164.6277 C.3     1  UNL1        0.0721
     24 N         142.5299  138.3851  163.2601 N.3     1  UNL1       -0.2726
     25 C         143.1100  139.0520  162.0482 C.3     1  UNL1        0.0721
     26 C         144.1821  140.0894  162.2039 C.3     1  UNL1        0.0174
@<TRIPOS>BOND
     1    20    21    1
     2    21    22    1
     3    22    23    1
     4    23    24    1
     5    24    19    1
     6    19    18    1
     7    18    17    1
     8    17    16    1
     9    16     1    1
    10     1     2   ar
    11     2     3   ar
    12     3     4   ar
    13     4     5    2
    14     4     6   ar
    15     6     8    1
    16     8     9   ar
    17     9    10   ar
    18    10    11   ar
    19    11    12    1
    20    11    13   ar
    21    13    14    1
    22    13    15   ar
    23     6     7   ar
    24    24    25    1
    25    25    26    1
    26    26    21    1
    27     7     1   ar
    28    15     8   ar
@<TRIPOS>MOLECULE
*****
 26 28 0 0 0
SMALL
GASTEIGER

@<TRIPOS>ATOM
      1 C         141.1577  143.5664  163.5184 C.ar    1  UNL1        0.2424
      2 C         141.4612  142.3358  162.7162 C.ar    1  UNL1        0.0641
      3 C         141.8561  141.0663  163.4108 C.ar    1  UNL1        0.0674
      4 C         141.9474  141.0274  164.9075 C.ar    1  UNL1        0.2807
      5 O         142.3423  139.7579  165.6020 O.2     1  UNL1       -0.2651
      6 N         141.6440  142.2581  165.7097 N.ar    1  UNL1       -0.1916
      7 N         141.2491  143.5276  165.0151 N.ar    1  UNL1       -0.1248
      8 C         141.7353  142.2191  167.2064 C.ar    1  UNL1        0.0885
      9 C         143.0763  142.2596  167.8772 C.ar    1  UNL1        0.0217
     10 C         143.1677  142.2207  169.3739 C.ar    1  UNL1        0.0335
     11 C         141.9180  142.1413  170.1998 C.ar    1  UNL1        0.1675
     12 F         142.0094  142.1024  171.6965 F       1  UNL1       -0.2018
     13 C         140.5770  142.1008  169.5289 C.ar    1  UNL1        0.1689
     14 F         139.3274  142.0214  170.3548 F       1  UNL1       -0.2017
     15 C         140.4857  142.1398  168.0322 C.ar    1  UNL1        0.0512
     16 O         140.7629  144.8360  162.8238 O.3     1  UNL1       -0.4592
     17 C         139.3345  145.0587  162.4233 C.3     1  UNL1        0.2086
     18 C         138.2340  144.3254  163.1312 C.3     1  UNL1        0.0647
     19 C         137.6813  143.0585  162.5487 C.3     1  UNL1        0.0759
     20 C         138.9034  137.7844  165.1354 C.3     1  UNL1        0.0001
     21 C         138.5979  139.1029  164.4887 C.3     1  UNL1        0.0028
     22 C         138.4544  140.3359  165.3308 C.3     1  UNL1        0.0174
     23 C         138.1489  141.6544  164.6841 C.3     1  UNL1        0.0721
     24 N         137.9868  141.7400  163.1954 N.3     1  UNL1       -0.2726
     25 C         138.1303  140.5070  162.3533 C.3     1  UNL1        0.0721
     26 C         138.4358  139.1885  163.0000 C.3     1  UNL1        0.0174
@<TRIPOS>BOND
     1    20    21    1
     2    21    22    1
     3    22    23    1
     4    23    24    1
     5    24    19    1
     6    19    18    1
     7    18    17    1
     8    17    16    1
     9    16     1    1
    10     1     2   ar
    11     2     3   ar
    12     3     4   ar
    13     4     5    2
    14     4     6   ar
    15     6     8    1
    16     8     9   ar
    17     9    10   ar
    18    10    11   ar
    19    11    12    1
    20    11    13   ar
    21    13    14    1
    22    13    15   ar
    23     6     7   ar
    24    24    25    1
    25    25    26    1
    26    26    21    1
    27     7     1   ar
    28    15     8   ar
@<TRIPOS>MOLECULE
*****
 26 28 0 0 0
SMALL
GASTEIGER

@<TRIPOS>ATOM
      1 C         144.0174  139.5635  163.3320 C.ar    1  UNL1        0.2424
      2 C         145.0287  140.6433  163.0850 C.ar    1  UNL1        0.0641
      3 C         145.0711  141.8492  163.9760 C.ar    1  UNL1        0.0674
      4 C         144.1022  141.9753  165.1141 C.ar    1  UNL1        0.2807
      5 O         144.1446  143.1812  166.0052 O.2     1  UNL1       -0.2651
      6 N         143.0908  140.8954  165.3611 N.ar    1  UNL1       -0.1916
      7 N         143.0484  139.6895  164.4701 N.ar    1  UNL1       -0.1248
      8 C         142.1218  141.0214  166.4992 C.ar    1  UNL1        0.0885
      9 C         141.1237  142.1410  166.5139 C.ar    1  UNL1        0.0217
     10 C         140.1548  142.2671  167.6520 C.ar    1  UNL1        0.0335
     11 C         140.1839  141.2735  168.7754 C.ar    1  UNL1        0.1675
     12 F         139.2150  141.3995  169.9135 F       1  UNL1       -0.2018
     13 C         141.1820  140.1538  168.7607 C.ar    1  UNL1        0.1689
     14 F         141.2112  139.1603  169.8840 F       1  UNL1       -0.2017
     15 C         142.1510  140.0278  167.6225 C.ar    1  UNL1        0.0512
     16 O         143.9750  138.3576  162.4409 O.3     1  UNL1       -0.4592
     17 C         143.0908  138.3511  161.2291 C.3     1  UNL1        0.2086
     18 C         141.6343  138.0197  161.3652 C.3     1  UNL1        0.0647
     19 C         140.6562  139.0859  161.7607 C.3     1  UNL1        0.0759
     20 C         137.8003  138.7338  167.0257 C.3     1  UNL1        0.0001
     21 C         138.5143  138.8218  165.7094 C.3     1  UNL1        0.0028
     22 C         139.2007  137.6129  165.1462 C.3     1  UNL1        0.0174
     23 C         139.9147  137.7009  163.8300 C.3     1  UNL1        0.0721
     24 N         139.9422  138.9979  163.0770 N.3     1  UNL1       -0.2726
     25 C         139.2558  140.2068  163.6402 C.3     1  UNL1        0.0721
     26 C         138.5418  140.1188  164.9564 C.3     1  UNL1        0.0174
@<TRIPOS>BOND
     1    20    21    1
     2    21    22    1
     3    22    23    1
     4    23    24    1
     5    24    19    1
     6    19    18    1
     7    18    17    1
     8    17    16    1
     9    16     1    1
    10     1     2   ar
    11     2     3   ar
    12     3     4   ar
    13     4     5    2
    14     4     6   ar
    15     6     8    1
    16     8     9   ar
    17     9    10   ar
    18    10    11   ar
    19    11    12    1
    20    11    13   ar
    21    13    14    1
    22    13    15   ar
    23     6     7   ar
    24    24    25    1
    25    25    26    1
    26    26    21    1
    27     7     1   ar
    28    15     8   ar
