@<TRIPOS>MOLECULE
*****
 25 28 0 0 0
SMALL
GASTEIGER

@<TRIPOS>ATOM
      1 N         143.6251  144.0056  171.4507 N.pl3   1  UNL1       -0.3375
      2 C         143.0058  143.1805  170.3617 C.ar    1  UNL1        0.1567
      3 N         143.6965  142.6959  169.1215 N.ar    1  UNL1       -0.2245
      4 C         142.7046  141.9112  168.3152 C.ar    1  UNL1        0.0889
      5 C         142.8201  141.1969  167.0012 C.ar    1  UNL1        0.0151
      6 C         141.6318  140.4822  166.4291 C.ar    1  UNL1       -0.0232
      7 C         140.3282  140.4818  167.1709 C.ar    1  UNL1       -0.0241
      8 C         140.2126  141.1961  168.4848 C.ar    1  UNL1        0.0035
      9 C         141.4008  141.9108  169.0570 C.ar    1  UNL1        0.0494
     10 S         141.5870  142.6953  170.3218 S.2     1  UNL1       -0.0520
     11 C         139.0310  139.8366  166.7820 C.3     1  UNL1        0.0434
     12 C         138.7173  139.0323  165.5553 C.3     1  UNL1        0.0771
     13 N         139.6232  138.6747  164.4146 N.3     1  UNL1       -0.2683
     14 C         141.0665  139.0330  164.2186 C.3     1  UNL1        0.0771
     15 C         141.9605  139.8374  165.1152 C.3     1  UNL1        0.0434
     16 H         144.5694  144.2765  171.3864 H       1  UNL1        0.1442
     17 H         143.0873  144.2761  172.2297 H       1  UNL1        0.1442
     18 C         139.0038  137.8497  163.3256 C.3     1  UNL1        0.0992
     19 C         138.8401  138.4247  161.9498 C.ar    1  UNL1       -0.0060
     20 C         139.8291  138.0877  160.8736 C.ar    1  UNL1       -0.0006
     21 C         139.6655  138.6626  159.4979 C.ar    1  UNL1        0.0294
     22 C         138.5128  139.5746  159.1984 C.ar    1  UNL1        0.1401
     23 F         138.3491  140.1496  157.8226 F       1  UNL1       -0.2042
     24 C         137.5238  139.9116  160.2747 C.ar    1  UNL1        0.0294
     25 C         137.6874  139.3367  161.6504 C.ar    1  UNL1       -0.0006
@<TRIPOS>BOND
     1     1     2    1
     2     2     3   ar
     3     3     4   ar
     4     4     5   ar
     5     5     6   ar
     6     6     7   ar
     7     7     8   ar
     8     8     9   ar
     9     9    10   ar
    10     7    11    1
    11    11    12    1
    12    12    13    1
    13    13    18    1
    14    18    19    1
    15    19    20   ar
    16    20    21   ar
    17    21    22   ar
    18    22    23    1
    19    22    24   ar
    20    24    25   ar
    21    13    14    1
    22    14    15    1
    23    10     2   ar
    24    25    19   ar
    25     9     4   ar
    26    15     6    1
    27     1    16    1
    28     1    17    1
@<TRIPOS>MOLECULE
*****
 25 28 0 0 0
SMALL
GASTEIGER

@<TRIPOS>ATOM
      1 N         137.7639  141.1542  157.2187 N.pl3   1  UNL1       -0.3375
      2 C         138.0240  141.0199  158.6899 C.ar    1  UNL1        0.1567
      3 N         137.7361  139.8106  159.5295 N.ar    1  UNL1       -0.2245
      4 C         138.1519  140.1148  160.9382 C.ar    1  UNL1        0.0889
      5 C         138.1047  139.2999  162.1967 C.ar    1  UNL1        0.0151
      6 C         138.6024  139.8823  163.4864 C.ar    1  UNL1       -0.0232
      7 C         139.1472  141.2794  163.5175 C.ar    1  UNL1       -0.0241
      8 C         139.1944  142.0943  162.2591 C.ar    1  UNL1        0.0035
      9 C         138.6967  141.5120  160.9694 C.ar    1  UNL1        0.0494
     10 S         138.6177  142.0714  159.5799 S.2     1  UNL1       -0.0520
     11 C         139.6903  142.0457  164.6872 C.3     1  UNL1        0.0434
     12 C         139.8226  141.6038  166.1146 C.3     1  UNL1        0.0771
     13 N         139.4446  140.2868  166.7247 N.3     1  UNL1       -0.2683
     14 C         138.8408  139.0862  166.0584 C.3     1  UNL1        0.0771
     15 C         138.4660  138.9061  164.6172 C.3     1  UNL1        0.0434
     16 H         137.3689  140.4040  156.7182 H       1  UNL1        0.1442
     17 H         137.9883  141.9924  156.7537 H       1  UNL1        0.1442
     18 C         139.7047  140.1526  168.1959 C.3     1  UNL1        0.0992
     19 C         140.7125  141.0407  168.8636 C.ar    1  UNL1       -0.0060
     20 C         140.2812  142.3466  169.4625 C.ar    1  UNL1       -0.0006
     21 C         141.2888  143.2347  170.1301 C.ar    1  UNL1        0.0294
     22 C         142.7279  142.8169  170.1989 C.ar    1  UNL1        0.1401
     23 F         143.7357  143.7050  170.8665 F       1  UNL1       -0.2042
     24 C         143.1592  141.5110  169.6000 C.ar    1  UNL1        0.0294
     25 C         142.1515  140.6229  168.9324 C.ar    1  UNL1       -0.0006
@<TRIPOS>BOND
     1     1     2    1
     2     2     3   ar
     3     3     4   ar
     4     4     5   ar
     5     5     6   ar
     6     6     7   ar
     7     7     8   ar
     8     8     9   ar
     9     9    10   ar
    10     7    11    1
    11    11    12    1
    12    12    13    1
    13    13    18    1
    14    18    19    1
    15    19    20   ar
    16    20    21   ar
    17    21    22   ar
    18    22    23    1
    19    22    24   ar
    20    24    25   ar
    21    13    14    1
    22    14    15    1
    23    10     2   ar
    24    25    19   ar
    25     9     4   ar
    26    15     6    1
    27     1    16    1
    28     1    17    1
@<TRIPOS>MOLECULE
*****
 25 28 0 0 0
SMALL
GASTEIGER

@<TRIPOS>ATOM
      1 N         143.2013  138.6986  156.1263 N.pl3   1  UNL1       -0.3375
      2 C         143.1471  138.7760  157.6234 C.ar    1  UNL1        0.1567
      3 N         143.9554  139.6969  158.4886 N.ar    1  UNL1       -0.2245
      4 C         143.5830  139.4360  159.9179 C.ar    1  UNL1        0.0889
      5 C         144.0553  140.0441  161.2053 C.ar    1  UNL1        0.0151
      6 C         143.4891  139.5699  162.5109 C.ar    1  UNL1       -0.0232
      7 C         142.4507  138.4877  162.5291 C.ar    1  UNL1       -0.0241
      8 C         141.9784  137.8796  161.2419 C.ar    1  UNL1        0.0035
      9 C         142.5445  138.3538  159.9362 C.ar    1  UNL1        0.0494
     10 S         142.2751  137.9459  158.5181 S.2     1  UNL1       -0.0520
     11 C         141.7608  137.8734  163.7110 C.3     1  UNL1        0.0434
     12 C         141.9391  138.1896  165.1665 C.3     1  UNL1        0.0771
     13 N         142.8512  139.1981  165.7994 N.3     1  UNL1       -0.2683
     14 C         143.8104  140.1397  165.1334 C.3     1  UNL1        0.0771
     15 C         144.0943  140.3051  163.6699 C.3     1  UNL1        0.0434
     16 H         143.8093  139.2884  155.6247 H       1  UNL1        0.1442
     17 H         142.6288  138.0581  155.6455 H       1  UNL1        0.1442
     18 C         142.7971  139.2755  167.2965 C.3     1  UNL1        0.0992
     19 C         142.3077  140.5256  167.9658 C.ar    1  UNL1       -0.0060
     20 C         141.1263  141.2620  167.4072 C.ar    1  UNL1       -0.0006
     21 C         140.6369  142.5120  168.0764 C.ar    1  UNL1        0.0294
     22 C         141.3289  143.0256  169.3042 C.ar    1  UNL1        0.1401
     23 F         140.8395  144.2757  169.9735 F       1  UNL1       -0.2042
     24 C         142.5103  142.2891  169.8628 C.ar    1  UNL1        0.0294
     25 C         142.9997  141.0391  169.1936 C.ar    1  UNL1       -0.0006
@<TRIPOS>BOND
     1     1     2    1
     2     2     3   ar
     3     3     4   ar
     4     4     5   ar
     5     5     6   ar
     6     6     7   ar
     7     7     8   ar
     8     8     9   ar
     9     9    10   ar
    10     7    11    1
    11    11    12    1
    12    12    13    1
    13    13    18    1
    14    18    19    1
    15    19    20   ar
    16    20    21   ar
    17    21    22   ar
    18    22    23    1
    19    22    24   ar
    20    24    25   ar
    21    13    14    1
    22    14    15    1
    23    10     2   ar
    24    25    19   ar
    25     9     4   ar
    26    15     6    1
    27     1    16    1
    28     1    17    1
@<TRIPOS>MOLECULE
*****
 25 28 0 0 0
SMALL
GASTEIGER

@<TRIPOS>ATOM
      1 N         143.8279  139.5809  171.5457 N.pl3   1  UNL1       -0.3375
      2 C         143.0274  140.0026  170.3493 C.ar    1  UNL1        0.1567
      3 N         143.3410  141.1534  169.4397 N.ar    1  UNL1       -0.2245
      4 C         142.2803  141.2095  168.3806 C.ar    1  UNL1        0.0889
      5 C         142.0717  142.1327  167.2169 C.ar    1  UNL1        0.0151
      6 C         140.8939  141.9398  166.3082 C.ar    1  UNL1       -0.0232
      7 C         139.9248  140.8237  166.5632 C.ar    1  UNL1       -0.0241
      8 C         140.1334  139.9004  167.7268 C.ar    1  UNL1        0.0035
      9 C         141.3111  140.0933  168.6356 C.ar    1  UNL1        0.0494
     10 S         141.7729  139.3474  169.8523 S.2     1  UNL1       -0.0520
     11 C         138.6948  140.4574  165.7867 C.3     1  UNL1        0.0434
     12 C         138.1301  141.1169  164.5635 C.3     1  UNL1        0.0771
     13 N         138.6559  142.3054  163.8147 N.3     1  UNL1       -0.2683
     14 C         139.8764  143.1281  164.1040 C.3     1  UNL1        0.0771
     15 C         140.8724  142.9654  165.2138 C.3     1  UNL1        0.0434
     16 H         144.6414  140.0770  171.7935 H       1  UNL1        0.1442
     17 H         143.5397  138.8081  172.0833 H       1  UNL1        0.1442
     18 C         137.8555  142.7270  162.6182 C.3     1  UNL1        0.0992
     19 C         138.1001  142.0811  161.2866 C.ar    1  UNL1       -0.0060
     20 C         138.7224  142.8705  160.1732 C.ar    1  UNL1       -0.0006
     21 C         138.9670  142.2247  158.8416 C.ar    1  UNL1        0.0294
     22 C         138.5893  140.7895  158.6235 C.ar    1  UNL1        0.1401
     23 F         138.8338  140.1436  157.2919 F       1  UNL1       -0.2042
     24 C         137.9670  140.0001  159.7369 C.ar    1  UNL1        0.0294
     25 C         137.7224  140.6459  161.0684 C.ar    1  UNL1       -0.0006
@<TRIPOS>BOND
     1     1     2    1
     2     2     3   ar
     3     3     4   ar
     4     4     5   ar
     5     5     6   ar
     6     6     7   ar
     7     7     8   ar
     8     8     9   ar
     9     9    10   ar
    10     7    11    1
    11    11    12    1
    12    12    13    1
    13    13    18    1
    14    18    19    1
    15    19    20   ar
    16    20    21   ar
    17    21    22   ar
    18    22    23    1
    19    22    24   ar
    20    24    25   ar
    21    13    14    1
    22    14    15    1
    23    10     2   ar
    24    25    19   ar
    25     9     4   ar
    26    15     6    1
    27     1    16    1
    28     1    17    1
@<TRIPOS>MOLECULE
*****
 25 28 0 0 0
SMALL
GASTEIGER

@<TRIPOS>ATOM
      1 N         142.5574  140.6125  171.5914 N.pl3   1  UNL1       -0.3375
      2 C         142.0971  140.2702  170.2054 C.ar    1  UNL1        0.1567
      3 N         142.9530  139.7222  169.1022 N.ar    1  UNL1       -0.2245
      4 C         142.0849  139.5293  167.8943 C.ar    1  UNL1        0.0889
      5 C         142.3825  139.0185  166.5157 C.ar    1  UNL1        0.0151
      6 C         141.2875  138.9365  165.4937 C.ar    1  UNL1       -0.0232
      7 C         139.8951  139.3652  165.8504 C.ar    1  UNL1       -0.0241
      8 C         139.5975  139.8759  167.2289 C.ar    1  UNL1        0.0035
      9 C         140.6924  139.9580  168.2510 C.ar    1  UNL1        0.0494
     10 S         140.7000  140.4159  169.6793 S.2     1  UNL1       -0.0520
     11 C         138.6669  139.3649  164.9891 C.3     1  UNL1        0.0434
     12 C         138.5280  138.9358  163.5584 C.3     1  UNL1        0.0771
     13 N         139.5828  138.4011  162.6359 N.3     1  UNL1       -0.2683
     14 C         141.0371  138.1633  162.9158 C.3     1  UNL1        0.0771
     15 C         141.7958  138.4016  164.1877 C.3     1  UNL1        0.0434
     16 H         143.5000  140.4811  171.8436 H       1  UNL1        0.1442
     17 H         141.9170  140.9685  172.2490 H       1  UNL1        0.1442
     18 C         139.1225  138.0589  161.2499 C.3     1  UNL1        0.0992
     19 C         139.2417  139.0705  160.1487 C.ar    1  UNL1       -0.0060
     20 C         138.1211  140.0335  159.8904 C.ar    1  UNL1       -0.0006
     21 C         138.2403  141.0451  158.7893 C.ar    1  UNL1        0.0294
     22 C         139.4802  141.0936  157.9464 C.ar    1  UNL1        0.1401
     23 F         139.5995  142.1052  156.8452 F       1  UNL1       -0.2042
     24 C         140.6008  140.1305  158.2047 C.ar    1  UNL1        0.0294
     25 C         140.4816  139.1190  159.3058 C.ar    1  UNL1       -0.0006
@<TRIPOS>BOND
     1     1     2    1
     2     2     3   ar
     3     3     4   ar
     4     4     5   ar
     5     5     6   ar
     6     6     7   ar
     7     7     8   ar
     8     8     9   ar
     9     9    10   ar
    10     7    11    1
    11    11    12    1
    12    12    13    1
    13    13    18    1
    14    18    19    1
    15    19    20   ar
    16    20    21   ar
    17    21    22   ar
    18    22    23    1
    19    22    24   ar
    20    24    25   ar
    21    13    14    1
    22    14    15    1
    23    10     2   ar
    24    25    19   ar
    25     9     4   ar
    26    15     6    1
    27     1    16    1
    28     1    17    1
@<TRIPOS>MOLECULE
*****
 25 28 0 0 0
SMALL
GASTEIGER

@<TRIPOS>ATOM
      1 N         143.7461  139.5179  171.4683 N.pl3   1  UNL1       -0.3375
      2 C         143.0297  139.9756  170.2325 C.ar    1  UNL1        0.1567
      3 N         142.8420  139.1784  168.9758 N.ar    1  UNL1       -0.2245
      4 C         142.0715  140.0209  168.0031 C.ar    1  UNL1        0.0889
      5 C         141.5954  139.7583  166.6051 C.ar    1  UNL1        0.0151
      6 C         140.8306  140.8138  165.8626 C.ar    1  UNL1       -0.0232
      7 C         140.5420  142.1316  166.5180 C.ar    1  UNL1       -0.0241
      8 C         141.0181  142.3943  167.9160 C.ar    1  UNL1        0.0035
      9 C         141.7829  141.3389  168.6585 C.ar    1  UNL1        0.0494
     10 S         142.3750  141.3108  170.0364 S.2     1  UNL1       -0.0520
     11 C         139.8018  143.3113  165.9605 C.3     1  UNL1        0.0434
     12 C         139.1676  143.4642  164.6098 C.3     1  UNL1        0.0771
     13 N         139.1168  142.4754  163.4831 N.3     1  UNL1       -0.2683
     14 C         139.6877  141.0893  163.4287 C.3     1  UNL1        0.0771
     15 C         140.4504  140.3498  164.4877 C.3     1  UNL1        0.0434
     16 H         144.1453  138.6185  171.5013 H       1  UNL1        0.1442
     17 H         143.8172  140.1168  172.2464 H       1  UNL1        0.1442
     18 C         138.4004  142.9331  162.2473 C.3     1  UNL1        0.0992
     19 C         139.1719  143.5481  161.1174 C.ar    1  UNL1       -0.0060
     20 C         139.9305  144.8239  161.3341 C.ar    1  UNL1       -0.0006
     21 C         140.7019  145.4389  160.2043 C.ar    1  UNL1        0.0294
     22 C         140.7148  144.7781  158.8577 C.ar    1  UNL1        0.1401
     23 F         141.4863  145.3931  157.7278 F       1  UNL1       -0.2042
     24 C         139.9563  143.5023  158.6410 C.ar    1  UNL1        0.0294
     25 C         139.1848  142.8873  159.7708 C.ar    1  UNL1       -0.0006
@<TRIPOS>BOND
     1     1     2    1
     2     2     3   ar
     3     3     4   ar
     4     4     5   ar
     5     5     6   ar
     6     6     7   ar
     7     7     8   ar
     8     8     9   ar
     9     9    10   ar
    10     7    11    1
    11    11    12    1
    12    12    13    1
    13    13    18    1
    14    18    19    1
    15    19    20   ar
    16    20    21   ar
    17    21    22   ar
    18    22    23    1
    19    22    24   ar
    20    24    25   ar
    21    13    14    1
    22    14    15    1
    23    10     2   ar
    24    25    19   ar
    25     9     4   ar
    26    15     6    1
    27     1    16    1
    28     1    17    1
@<TRIPOS>MOLECULE
*****
 25 28 0 0 0
SMALL
GASTEIGER

@<TRIPOS>ATOM
      1 N         142.0974  137.8795  156.2057 N.pl3   1  UNL1       -0.3375
      2 C         141.7058  138.0621  157.6421 C.ar    1  UNL1        0.1567
      3 N         142.5878  137.8292  158.8329 N.ar    1  UNL1       -0.2245
      4 C         141.7906  138.1329  160.0666 C.ar    1  UNL1        0.0889
      5 C         142.1389  138.0808  161.5247 C.ar    1  UNL1        0.0151
      6 C         141.1124  138.4493  162.5546 C.ar    1  UNL1       -0.0232
      7 C         139.7378  138.8698  162.1264 C.ar    1  UNL1       -0.0241
      8 C         139.3895  138.9220  160.6684 C.ar    1  UNL1        0.0035
      9 C         140.4159  138.5535  159.6384 C.ar    1  UNL1        0.0494
     10 S         140.3635  138.5097  158.1400 S.2     1  UNL1       -0.0520
     11 C         138.5745  139.2749  162.9825 C.3     1  UNL1        0.0434
     12 C         138.4987  139.3594  164.4782 C.3     1  UNL1        0.0771
     13 N         139.5673  139.0597  165.4872 N.3     1  UNL1       -0.2683
     14 C         140.9758  138.6015  165.2498 C.3     1  UNL1        0.0771
     15 C         141.6634  138.3298  163.9446 C.3     1  UNL1        0.0434
     16 H         143.0072  137.5805  155.9776 H       1  UNL1        0.1442
     17 H         141.4445  138.0586  155.4909 H       1  UNL1        0.1442
     18 C         139.1757  139.2423  166.9236 C.3     1  UNL1        0.0992
     19 C         139.6046  140.4724  167.6674 C.ar    1  UNL1       -0.0060
     20 C         140.1548  141.6489  166.9169 C.ar    1  UNL1       -0.0006
     21 C         140.5837  142.8789  167.6606 C.ar    1  UNL1        0.0294
     22 C         140.4623  142.9325  169.1547 C.ar    1  UNL1        0.1401
     23 F         140.8912  144.1625  169.8985 F       1  UNL1       -0.2042
     24 C         139.9121  141.7559  169.9052 C.ar    1  UNL1        0.0294
     25 C         139.4833  140.5260  169.1615 C.ar    1  UNL1       -0.0006
@<TRIPOS>BOND
     1     1     2    1
     2     2     3   ar
     3     3     4   ar
     4     4     5   ar
     5     5     6   ar
     6     6     7   ar
     7     7     8   ar
     8     8     9   ar
     9     9    10   ar
    10     7    11    1
    11    11    12    1
    12    12    13    1
    13    13    18    1
    14    18    19    1
    15    19    20   ar
    16    20    21   ar
    17    21    22   ar
    18    22    23    1
    19    22    24   ar
    20    24    25   ar
    21    13    14    1
    22    14    15    1
    23    10     2   ar
    24    25    19   ar
    25     9     4   ar
    26    15     6    1
    27     1    16    1
    28     1    17    1
@<TRIPOS>MOLECULE
*****
 25 28 0 0 0
SMALL
GASTEIGER

@<TRIPOS>ATOM
      1 N         142.6107  142.8960  171.6042 N.pl3   1  UNL1       -0.3375
      2 C         142.1233  142.2101  170.3624 C.ar    1  UNL1        0.1567
      3 N         140.7611  141.6152  170.1606 N.ar    1  UNL1       -0.2245
      4 C         140.7084  141.0362  168.7779 C.ar    1  UNL1        0.0889
      5 C         139.6215  140.3237  168.0289 C.ar    1  UNL1        0.0151
      6 C         139.8641  139.8483  166.6270 C.ar    1  UNL1       -0.0232
      7 C         141.1936  140.0854  165.9743 C.ar    1  UNL1       -0.0241
      8 C         142.2805  140.7978  166.7232 C.ar    1  UNL1        0.0035
      9 C         142.0379  141.2733  168.1251 C.ar    1  UNL1        0.0494
     10 S         142.9123  141.9988  169.1044 S.2     1  UNL1       -0.0520
     11 C         141.6415  139.6969  164.5964 C.3     1  UNL1        0.0434
     12 C         140.8703  138.9755  163.5310 C.3     1  UNL1        0.0771
     13 N         139.4611  138.4644  163.5804 N.3     1  UNL1       -0.2683
     14 C         138.4746  138.5484  164.7073 C.3     1  UNL1        0.0771
     15 C         138.6540  139.1643  166.0632 C.3     1  UNL1        0.0434
     16 H         142.0150  142.9863  172.3828 H       1  UNL1        0.1442
     17 H         143.5264  143.2558  171.6407 H       1  UNL1        0.1442
     18 C         138.9736  137.7786  162.3386 C.3     1  UNL1        0.0992
     19 C         138.9056  138.5319  161.0432 C.ar    1  UNL1       -0.0060
     20 C         139.9510  138.3095  159.9906 C.ar    1  UNL1       -0.0006
     21 C         139.8831  139.0627  158.6953 C.ar    1  UNL1        0.0294
     22 C         138.7699  140.0383  158.4524 C.ar    1  UNL1        0.1401
     23 F         138.7019  140.7915  157.1570 F       1  UNL1       -0.2042
     24 C         137.7245  140.2606  159.5050 C.ar    1  UNL1        0.0294
     25 C         137.7924  139.5074  160.8003 C.ar    1  UNL1       -0.0006
@<TRIPOS>BOND
     1     1     2    1
     2     2     3   ar
     3     3     4   ar
     4     4     5   ar
     5     5     6   ar
     6     6     7   ar
     7     7     8   ar
     8     8     9   ar
     9     9    10   ar
    10     7    11    1
    11    11    12    1
    12    12    13    1
    13    13    18    1
    14    18    19    1
    15    19    20   ar
    16    20    21   ar
    17    21    22   ar
    18    22    23    1
    19    22    24   ar
    20    24    25   ar
    21    13    14    1
    22    14    15    1
    23    10     2   ar
    24    25    19   ar
    25     9     4   ar
    26    15     6    1
    27     1    16    1
    28     1    17    1
@<TRIPOS>MOLECULE
*****
 25 28 0 0 0
SMALL
GASTEIGER

@<TRIPOS>ATOM
      1 N         139.7507  139.3715  171.5075 N.pl3   1  UNL1       -0.3375
      2 C         140.1994  139.9552  170.2006 C.ar    1  UNL1        0.1567
      3 N         139.4058  139.9818  168.9280 N.ar    1  UNL1       -0.2245
      4 C         140.2364  140.6579  167.8779 C.ar    1  UNL1        0.0889
      5 C         139.9715  140.9679  166.4343 C.ar    1  UNL1        0.0151
      6 C         141.0136  141.6691  165.6143 C.ar    1  UNL1       -0.0232
      7 C         142.3205  142.0603  166.2378 C.ar    1  UNL1       -0.0241
      8 C         142.5854  141.7504  167.6813 C.ar    1  UNL1        0.0035
      9 C         141.5434  141.0492  168.5014 C.ar    1  UNL1        0.0494
     10 S         141.5204  140.6149  169.9369 S.2     1  UNL1       -0.0520
     11 C         143.4862  142.7607  165.6048 C.3     1  UNL1        0.0434
     12 C         143.6328  143.2428  164.1919 C.3     1  UNL1        0.0771
     13 N         142.6500  143.1435  163.0632 N.3     1  UNL1       -0.2683
     14 C         141.2778  142.5377  163.0684 C.3     1  UNL1        0.0771
     15 C         140.5495  141.8815  164.2038 C.3     1  UNL1        0.0434
     16 H         138.8605  138.9575  171.5820 H       1  UNL1        0.1442
     17 H         140.3463  139.4023  172.2908 H       1  UNL1        0.1442
     18 C         143.0987  143.7273  161.7564 C.3     1  UNL1        0.0992
     19 C         142.1266  143.8622  160.6219 C.ar    1  UNL1       -0.0060
     20 C         141.1998  145.0402  160.5646 C.ar    1  UNL1       -0.0006
     21 C         140.2277  145.1752  159.4302 C.ar    1  UNL1        0.0294
     22 C         140.1824  144.1321  158.3532 C.ar    1  UNL1        0.1401
     23 F         139.2103  144.2670  157.2188 F       1  UNL1       -0.2042
     24 C         141.1093  142.9541  158.4106 C.ar    1  UNL1        0.0294
     25 C         142.0813  142.8191  159.5449 C.ar    1  UNL1       -0.0006
@<TRIPOS>BOND
     1     1     2    1
     2     2     3   ar
     3     3     4   ar
     4     4     5   ar
     5     5     6   ar
     6     6     7   ar
     7     7     8   ar
     8     8     9   ar
     9     9    10   ar
    10     7    11    1
    11    11    12    1
    12    12    13    1
    13    13    18    1
    14    18    19    1
    15    19    20   ar
    16    20    21   ar
    17    21    22   ar
    18    22    23    1
    19    22    24   ar
    20    24    25   ar
    21    13    14    1
    22    14    15    1
    23    10     2   ar
    24    25    19   ar
    25     9     4   ar
    26    15     6    1
    27     1    16    1
    28     1    17    1
