@<TRIPOS>MOLECULE
*****
 40 44 0 0 0
SMALL
GASTEIGER

@<TRIPOS>ATOM
      1 C         140.9471  140.1533  165.2690 C.3     1  UNL1        0.0776
      2 C         140.0070  141.4682  158.9336 C.ar    1  UNL1        0.0417
      3 C         141.2996  140.8862  158.4434 C.ar    1  UNL1        0.0098
      4 C         142.2632  140.2740  159.4164 C.ar    1  UNL1        0.0198
      5 C         141.9342  140.2438  160.8795 C.ar    1  UNL1        0.0844
      6 N         142.8978  139.6316  161.8525 N.ar    1  UNL1       -0.2119
      7 C         142.5688  139.6014  163.3156 C.ar    1  UNL1        0.2211
      8 C         141.2761  140.1835  163.8059 C.ar    1  UNL1        0.0373
      9 C         140.3125  140.7957  162.8329 C.ar    1  UNL1        0.0023
     10 C         140.6416  140.8259  161.3697 C.ar    1  UNL1        0.0182
     11 C         139.6780  141.4381  160.3967 C.ar    1  UNL1        0.0097
     12 C         137.1162  143.3049  156.0147 C.3     1  UNL1        0.0903
     13 C         138.0798  142.6927  156.9877 C.1     1  UNL1       -0.0854
     14 C         139.0434  142.0805  157.9606 C.1     1  UNL1       -0.0643
     15 O         143.5324  138.9892  164.2886 O.3     1  UNL1       -0.4563
     16 C         144.9540  139.4651  164.3363 C.3     1  UNL1        0.2542
     17 C         139.8251  139.2916  165.7679 C.ar    1  UNL1       -0.0157
     18 C         139.5070  137.9995  165.0756 C.ar    1  UNL1       -0.0039
     19 C         138.3851  137.1378  165.5744 C.ar    1  UNL1       -0.0003
     20 C         137.5814  137.5683  166.7655 C.ar    1  UNL1       -0.0000
     21 C         137.8995  138.8604  167.4577 C.ar    1  UNL1       -0.0003
     22 C         139.0214  139.7221  166.9589 C.ar    1  UNL1       -0.0039
     23 C         141.7400  140.9848  166.2333 C.3     1  UNL1        0.1158
     24 O         142.3227  139.7378  166.8294 O.3     1  UNL1       -0.3820
     25 H         143.2162  139.5987  166.4785 H       1  UNL1        0.2107
     26 C         141.1573  142.2319  165.6372 C.ar    1  UNL1        0.0024
     27 C         139.7130  142.5676  165.8640 C.ar    1  UNL1       -0.0020
     28 C         139.1303  143.8146  165.2679 C.ar    1  UNL1       -0.0002
     29 C         139.9918  144.7259  164.4450 C.ar    1  UNL1       -0.0000
     30 C         141.4360  144.3902  164.2181 C.ar    1  UNL1       -0.0002
     31 C         142.2976  145.3015  163.3951 C.ar    1  UNL1       -0.0000
     32 C         143.7418  144.9658  163.1683 C.ar    1  UNL1       -0.0000
     33 C         144.3245  143.7188  163.7644 C.ar    1  UNL1       -0.0000
     34 C         143.4630  142.8075  164.5874 C.ar    1  UNL1       -0.0002
     35 C         142.0187  143.1432  164.8142 C.ar    1  UNL1       -0.0018
     36 C         142.5329  141.8163  167.1977 C.3     1  UNL1        0.0491
     37 C         142.6099  141.4203  168.6423 C.3     1  UNL1        0.0750
     38 N         141.3515  141.1777  169.4217 N.3     1  UNL1       -0.2702
     39 C         141.1318  139.8577  170.0996 C.3     1  UNL1        0.0897
     40 C         140.3127  142.2550  169.5231 C.3     1  UNL1        0.0897
@<TRIPOS>BOND
     1    12    13    1
     2    13    14    3
     3    14     2    1
     4     2     3   ar
     5     3     4   ar
     6     4     5   ar
     7     5     6   ar
     8     6     7   ar
     9     7    15    1
    10    15    16    1
    11     7     8   ar
    12     8     1    1
    13     1    17    1
    14    17    18   ar
    15    18    19   ar
    16    19    20   ar
    17    20    21   ar
    18    21    22   ar
    19     1    23    1
    20    23    24    1
    21    23    36    1
    22    36    37    1
    23    37    38    1
    24    38    39    1
    25    38    40    1
    26    23    26    1
    27    26    27   ar
    28    27    28   ar
    29    28    29   ar
    30    29    30   ar
    31    30    31   ar
    32    31    32   ar
    33    32    33   ar
    34    33    34   ar
    35    34    35   ar
    36     8     9   ar
    37     9    10   ar
    38    10    11   ar
    39    11     2   ar
    40    10     5   ar
    41    22    17   ar
    42    35    26   ar
    43    35    30   ar
    44    24    25    1
@<TRIPOS>MOLECULE
*****
 40 44 0 0 0
SMALL
GASTEIGER

@<TRIPOS>ATOM
      1 C         139.6976  140.7765  164.4946 C.3     1  UNL1        0.0776
      2 C         143.4018  142.1405  169.7068 C.ar    1  UNL1        0.0417
      3 C         142.6361  141.3015  170.6864 C.ar    1  UNL1        0.0098
      4 C         141.4358  140.5253  170.2317 C.ar    1  UNL1        0.0198
      5 C         141.0012  140.5881  168.7975 C.ar    1  UNL1        0.0844
      6 N         139.8009  139.8119  168.3428 N.ar    1  UNL1       -0.2119
      7 C         139.3664  139.8747  166.9085 C.ar    1  UNL1        0.2211
      8 C         140.1322  140.7137  165.9288 C.ar    1  UNL1        0.0373
      9 C         141.3325  141.4899  166.3835 C.ar    1  UNL1        0.0023
     10 C         141.7670  141.4271  167.8179 C.ar    1  UNL1        0.0182
     11 C         142.9673  142.2033  168.2726 C.ar    1  UNL1        0.0097
     12 C         147.0028  144.4692  171.0709 C.3     1  UNL1        0.0903
     13 C         145.8025  143.6930  170.6162 C.1     1  UNL1       -0.0854
     14 C         144.6022  142.9168  170.1615 C.1     1  UNL1       -0.0643
     15 O         138.1661  139.0984  166.4538 O.3     1  UNL1       -0.4563
     16 C         137.3897  138.2737  167.4371 C.3     1  UNL1        0.2542
     17 C         139.0068  142.0016  163.9731 C.ar    1  UNL1       -0.0157
     18 C         138.6925  143.1376  164.9009 C.ar    1  UNL1       -0.0039
     19 C         138.0017  144.3626  164.3795 C.ar    1  UNL1       -0.0003
     20 C         137.6251  144.4518  162.9303 C.ar    1  UNL1       -0.0000
     21 C         137.9393  143.3158  162.0025 C.ar    1  UNL1       -0.0003
     22 C         138.6302  142.0907  162.5239 C.ar    1  UNL1       -0.0039
     23 C         139.9539  139.6142  163.5817 C.3     1  UNL1        0.1158
     24 O         138.5449  139.1423  163.7869 O.3     1  UNL1       -0.3820
     25 H         138.0029  139.4019  163.0255 H       1  UNL1        0.2107
     26 C         141.3629  140.0860  163.3764 C.ar    1  UNL1        0.0024
     27 C         141.6600  141.1349  162.3461 C.ar    1  UNL1       -0.0020
     28 C         143.0690  141.6067  162.1408 C.ar    1  UNL1       -0.0002
     29 C         144.1808  141.0298  162.9659 C.ar    1  UNL1       -0.0000
     30 C         143.8837  139.9810  163.9963 C.ar    1  UNL1       -0.0002
     31 C         144.9956  139.4040  164.8214 C.ar    1  UNL1       -0.0000
     32 C         144.6985  138.3552  165.8518 C.ar    1  UNL1       -0.0000
     33 C         143.2896  137.8833  166.0570 C.ar    1  UNL1       -0.0000
     34 C         142.1777  138.4602  165.2319 C.ar    1  UNL1       -0.0002
     35 C         142.4748  139.5091  164.2015 C.ar    1  UNL1       -0.0018
     36 C         140.2102  138.4519  162.6688 C.3     1  UNL1        0.0491
     37 C         139.1817  138.0564  161.6511 C.3     1  UNL1        0.0750
     38 N         138.7777  139.0236  160.5781 N.3     1  UNL1       -0.2702
     39 C         139.7795  139.4696  159.5545 C.3     1  UNL1        0.0897
     40 C         137.3721  139.5448  160.5285 C.3     1  UNL1        0.0897
@<TRIPOS>BOND
     1    12    13    1
     2    13    14    3
     3    14     2    1
     4     2     3   ar
     5     3     4   ar
     6     4     5   ar
     7     5     6   ar
     8     6     7   ar
     9     7    15    1
    10    15    16    1
    11     7     8   ar
    12     8     1    1
    13     1    17    1
    14    17    18   ar
    15    18    19   ar
    16    19    20   ar
    17    20    21   ar
    18    21    22   ar
    19     1    23    1
    20    23    24    1
    21    23    36    1
    22    36    37    1
    23    37    38    1
    24    38    39    1
    25    38    40    1
    26    23    26    1
    27    26    27   ar
    28    27    28   ar
    29    28    29   ar
    30    29    30   ar
    31    30    31   ar
    32    31    32   ar
    33    32    33   ar
    34    33    34   ar
    35    34    35   ar
    36     8     9   ar
    37     9    10   ar
    38    10    11   ar
    39    11     2   ar
    40    10     5   ar
    41    22    17   ar
    42    35    26   ar
    43    35    30   ar
    44    24    25    1
@<TRIPOS>MOLECULE
*****
 40 44 0 0 0
SMALL
GASTEIGER

@<TRIPOS>ATOM
      1 C         139.4616  140.6826  164.6841 C.3     1  UNL1        0.0776
      2 C         143.3039  142.1013  169.7806 C.ar    1  UNL1        0.0417
      3 C         142.5526  141.2894  170.7937 C.ar    1  UNL1        0.0098
      4 C         141.3334  140.5185  170.3822 C.ar    1  UNL1        0.0198
      5 C         140.8655  140.5595  168.9577 C.ar    1  UNL1        0.0844
      6 N         139.6463  139.7886  168.5463 N.ar    1  UNL1       -0.2119
      7 C         139.1783  139.8296  167.1218 C.ar    1  UNL1        0.2211
      8 C         139.9296  140.6415  166.1086 C.ar    1  UNL1        0.0373
      9 C         141.1488  141.4124  166.5200 C.ar    1  UNL1        0.0023
     10 C         141.6167  141.3714  167.9446 C.ar    1  UNL1        0.0182
     11 C         142.8359  142.1423  168.3561 C.ar    1  UNL1        0.0097
     12 C         146.9615  144.4139  171.0148 C.3     1  UNL1        0.0903
     13 C         145.7423  143.6430  170.6034 C.1     1  UNL1       -0.0854
     14 C         144.5231  142.8721  170.1920 C.1     1  UNL1       -0.0643
     15 O         137.9591  139.0587  166.7104 O.3     1  UNL1       -0.4563
     16 C         138.0412  137.5738  166.5149 C.3     1  UNL1        0.2542
     17 C         138.9443  141.9642  164.1012 C.ar    1  UNL1       -0.0157
     18 C         138.8853  143.2024  164.9459 C.ar    1  UNL1       -0.0039
     19 C         138.3680  144.4840  164.3631 C.ar    1  UNL1       -0.0003
     20 C         137.9097  144.5275  162.9355 C.ar    1  UNL1       -0.0000
     21 C         137.9687  143.2894  162.0908 C.ar    1  UNL1       -0.0003
     22 C         138.4860  142.0078  162.6736 C.ar    1  UNL1       -0.0039
     23 C         139.5109  139.4419  163.8424 C.3     1  UNL1        0.1158
     24 O         138.0338  139.5456  163.6031 O.3     1  UNL1       -0.3820
     25 H         137.8744  139.9290  162.7264 H       1  UNL1        0.2107
     26 C         140.9881  139.3382  164.0818 C.ar    1  UNL1        0.0024
     27 C         141.5106  138.4509  165.1725 C.ar    1  UNL1       -0.0020
     28 C         142.9878  138.3472  165.4118 C.ar    1  UNL1       -0.0002
     29 C         143.9423  139.1309  164.5606 C.ar    1  UNL1       -0.0000
     30 C         143.4198  140.0182  163.4700 C.ar    1  UNL1       -0.0002
     31 C         144.3743  140.8020  162.6187 C.ar    1  UNL1       -0.0000
     32 C         143.8518  141.6893  161.5281 C.ar    1  UNL1       -0.0000
     33 C         142.3746  141.7930  161.2887 C.ar    1  UNL1       -0.0000
     34 C         141.4201  141.0093  162.1399 C.ar    1  UNL1       -0.0002
     35 C         141.9426  140.1219  163.2306 C.ar    1  UNL1       -0.0018
     36 C         139.5602  138.2013  163.0008 C.3     1  UNL1        0.0491
     37 C         138.5922  138.0240  161.8688 C.3     1  UNL1        0.0750
     38 N         138.7870  138.7826  160.5896 N.3     1  UNL1       -0.2702
     39 C         140.0335  138.5803  159.7799 C.3     1  UNL1        0.0897
     40 C         137.7354  139.7436  160.1199 C.3     1  UNL1        0.0897
@<TRIPOS>BOND
     1    12    13    1
     2    13    14    3
     3    14     2    1
     4     2     3   ar
     5     3     4   ar
     6     4     5   ar
     7     5     6   ar
     8     6     7   ar
     9     7    15    1
    10    15    16    1
    11     7     8   ar
    12     8     1    1
    13     1    17    1
    14    17    18   ar
    15    18    19   ar
    16    19    20   ar
    17    20    21   ar
    18    21    22   ar
    19     1    23    1
    20    23    24    1
    21    23    36    1
    22    36    37    1
    23    37    38    1
    24    38    39    1
    25    38    40    1
    26    23    26    1
    27    26    27   ar
    28    27    28   ar
    29    28    29   ar
    30    29    30   ar
    31    30    31   ar
    32    31    32   ar
    33    32    33   ar
    34    33    34   ar
    35    34    35   ar
    36     8     9   ar
    37     9    10   ar
    38    10    11   ar
    39    11     2   ar
    40    10     5   ar
    41    22    17   ar
    42    35    26   ar
    43    35    30   ar
    44    24    25    1
@<TRIPOS>MOLECULE
*****
 40 44 0 0 0
SMALL
GASTEIGER

@<TRIPOS>ATOM
      1 C         140.2840  140.8908  165.4619 C.3     1  UNL1        0.0776
      2 C         141.7247  141.3930  159.1041 C.ar    1  UNL1        0.0417
      3 C         140.8688  142.5935  158.8280 C.ar    1  UNL1        0.0098
      4 C         140.0671  143.2134  159.9340 C.ar    1  UNL1        0.0198
      5 C         140.1213  142.6327  161.3159 C.ar    1  UNL1        0.0844
      6 N         139.3196  143.2526  162.4219 N.ar    1  UNL1       -0.2119
      7 C         139.3739  142.6720  163.8038 C.ar    1  UNL1        0.2211
      8 C         140.2298  141.4714  164.0799 C.ar    1  UNL1        0.0373
      9 C         141.0315  140.8516  162.9740 C.ar    1  UNL1        0.0023
     10 C         140.9772  141.4323  161.5920 C.ar    1  UNL1        0.0182
     11 C         141.7789  140.8124  160.4860 C.ar    1  UNL1        0.0097
     12 C         144.1298  139.5335  155.7863 C.3     1  UNL1        0.0903
     13 C         143.3281  140.1533  156.8922 C.1     1  UNL1       -0.0854
     14 C         142.5264  140.7732  157.9981 C.1     1  UNL1       -0.0643
     15 O         138.5722  143.2918  164.9098 O.3     1  UNL1       -0.4563
     16 C         138.5928  144.7784  165.1087 C.3     1  UNL1        0.2542
     17 C         139.4350  139.7044  165.8108 C.ar    1  UNL1       -0.0157
     18 C         138.5665  139.7373  167.0334 C.ar    1  UNL1       -0.0039
     19 C         137.7174  138.5510  167.3823 C.ar    1  UNL1       -0.0003
     20 C         137.7369  137.3318  166.5088 C.ar    1  UNL1       -0.0000
     21 C         138.6054  137.2990  165.2862 C.ar    1  UNL1       -0.0003
     22 C         139.4544  138.4853  164.9373 C.ar    1  UNL1       -0.0039
     23 C         141.1873  141.4965  166.4950 C.3     1  UNL1        0.1158
     24 O         140.0649  142.3759  166.9607 O.3     1  UNL1       -0.3820
     25 H         139.6748  142.0028  167.7667 H       1  UNL1        0.2107
     26 C         142.3096  140.6171  166.0293 C.ar    1  UNL1        0.0024
     27 C         142.3722  139.1845  166.4694 C.ar    1  UNL1       -0.0020
     28 C         143.4946  138.3051  166.0037 C.ar    1  UNL1       -0.0002
     29 C         144.5544  138.8583  165.0979 C.ar    1  UNL1       -0.0000
     30 C         144.4919  140.2909  164.6577 C.ar    1  UNL1       -0.0002
     31 C         145.5518  140.8441  163.7518 C.ar    1  UNL1       -0.0000
     32 C         145.4893  142.2767  163.3116 C.ar    1  UNL1       -0.0000
     33 C         144.3669  143.1561  163.7773 C.ar    1  UNL1       -0.0000
     34 C         143.3070  142.6029  164.6832 C.ar    1  UNL1       -0.0002
     35 C         143.3695  141.1703  165.1234 C.ar    1  UNL1       -0.0018
     36 C         142.0905  142.1022  167.5281 C.3     1  UNL1        0.0491
     37 C         141.5728  142.3765  168.9089 C.3     1  UNL1        0.0750
     38 N         140.9160  141.2807  169.6950 N.3     1  UNL1       -0.2702
     39 C         141.6592  140.0076  169.9725 C.3     1  UNL1        0.0897
     40 C         139.5160  141.4580  170.2036 C.3     1  UNL1        0.0897
@<TRIPOS>BOND
     1    12    13    1
     2    13    14    3
     3    14     2    1
     4     2     3   ar
     5     3     4   ar
     6     4     5   ar
     7     5     6   ar
     8     6     7   ar
     9     7    15    1
    10    15    16    1
    11     7     8   ar
    12     8     1    1
    13     1    17    1
    14    17    18   ar
    15    18    19   ar
    16    19    20   ar
    17    20    21   ar
    18    21    22   ar
    19     1    23    1
    20    23    24    1
    21    23    36    1
    22    36    37    1
    23    37    38    1
    24    38    39    1
    25    38    40    1
    26    23    26    1
    27    26    27   ar
    28    27    28   ar
    29    28    29   ar
    30    29    30   ar
    31    30    31   ar
    32    31    32   ar
    33    32    33   ar
    34    33    34   ar
    35    34    35   ar
    36     8     9   ar
    37     9    10   ar
    38    10    11   ar
    39    11     2   ar
    40    10     5   ar
    41    22    17   ar
    42    35    26   ar
    43    35    30   ar
    44    24    25    1
@<TRIPOS>MOLECULE
*****
 40 44 0 0 0
SMALL
GASTEIGER

@<TRIPOS>ATOM
      1 C         141.6019  142.3536  163.1612 C.3     1  UNL1        0.0776
      2 C         139.6008  140.5864  169.1297 C.ar    1  UNL1        0.0417
      3 C         140.8299  141.0352  169.8631 C.ar    1  UNL1        0.0098
      4 C         141.9675  141.6579  169.1094 C.ar    1  UNL1        0.0198
      5 C         141.8761  141.8318  167.6224 C.ar    1  UNL1        0.0844
      6 N         143.0138  142.4545  166.8688 N.ar    1  UNL1       -0.2119
      7 C         142.9224  142.6284  165.3817 C.ar    1  UNL1        0.2211
      8 C         141.6933  142.1797  164.6482 C.ar    1  UNL1        0.0373
      9 C         140.5556  141.5570  165.4019 C.ar    1  UNL1        0.0023
     10 C         140.6471  141.3830  166.8890 C.ar    1  UNL1        0.0182
     11 C         139.5094  140.7603  167.6426 C.ar    1  UNL1        0.0097
     12 C         136.1878  138.7183  171.3906 C.3     1  UNL1        0.0903
     13 C         137.3255  139.3410  170.6369 C.1     1  UNL1       -0.0854
     14 C         138.4631  139.9637  169.8833 C.1     1  UNL1       -0.0643
     15 O         144.0601  143.2511  164.6281 O.3     1  UNL1       -0.4563
     16 C         144.0568  144.7247  164.3479 C.3     1  UNL1        0.2542
     17 C         140.9939  143.5992  162.5877 C.ar    1  UNL1       -0.0157
     18 C         139.8695  144.2844  163.3063 C.ar    1  UNL1       -0.0039
     19 C         139.2616  145.5300  162.7329 C.ar    1  UNL1       -0.0003
     20 C         139.7780  146.0904  161.4409 C.ar    1  UNL1       -0.0000
     21 C         140.9023  145.4052  160.7223 C.ar    1  UNL1       -0.0003
     22 C         141.5103  144.1596  161.2957 C.ar    1  UNL1       -0.0039
     23 C         142.1184  141.2819  162.2476 C.3     1  UNL1        0.1158
     24 O         143.4713  141.9296  162.2528 O.3     1  UNL1       -0.3820
     25 H         144.0555  141.4533  162.8633 H       1  UNL1        0.2107
     26 C         140.7654  140.6343  162.2423 C.ar    1  UNL1        0.0024
     27 C         139.6586  141.2161  161.4139 C.ar    1  UNL1       -0.0020
     28 C         138.3056  140.5684  161.4087 C.ar    1  UNL1       -0.0002
     29 C         138.0595  139.3389  162.2319 C.ar    1  UNL1       -0.0000
     30 C         139.1663  138.7571  163.0603 C.ar    1  UNL1       -0.0002
     31 C         138.9202  137.5275  163.8836 C.ar    1  UNL1       -0.0000
     32 C         140.0271  136.9457  164.7120 C.ar    1  UNL1       -0.0000
     33 C         141.3800  137.5934  164.7172 C.ar    1  UNL1       -0.0000
     34 C         141.6262  138.8229  163.8940 C.ar    1  UNL1       -0.0002
     35 C         140.5193  139.4048  163.0655 C.ar    1  UNL1       -0.0018
     36 C         142.6349  140.2103  161.3339 C.3     1  UNL1        0.0491
     37 C         143.7232  140.5236  160.3504 C.3     1  UNL1        0.0750
     38 N         143.4741  141.5046  159.2434 N.3     1  UNL1       -0.2702
     39 C         142.1401  141.5395  158.5583 C.3     1  UNL1        0.0897
     40 C         144.5589  142.4506  158.8214 C.3     1  UNL1        0.0897
@<TRIPOS>BOND
     1    12    13    1
     2    13    14    3
     3    14     2    1
     4     2     3   ar
     5     3     4   ar
     6     4     5   ar
     7     5     6   ar
     8     6     7   ar
     9     7    15    1
    10    15    16    1
    11     7     8   ar
    12     8     1    1
    13     1    17    1
    14    17    18   ar
    15    18    19   ar
    16    19    20   ar
    17    20    21   ar
    18    21    22   ar
    19     1    23    1
    20    23    24    1
    21    23    36    1
    22    36    37    1
    23    37    38    1
    24    38    39    1
    25    38    40    1
    26    23    26    1
    27    26    27   ar
    28    27    28   ar
    29    28    29   ar
    30    29    30   ar
    31    30    31   ar
    32    31    32   ar
    33    32    33   ar
    34    33    34   ar
    35    34    35   ar
    36     8     9   ar
    37     9    10   ar
    38    10    11   ar
    39    11     2   ar
    40    10     5   ar
    41    22    17   ar
    42    35    26   ar
    43    35    30   ar
    44    24    25    1
@<TRIPOS>MOLECULE
*****
 40 44 0 0 0
SMALL
GASTEIGER

@<TRIPOS>ATOM
      1 C         141.5745  142.0029  164.2343 C.3     1  UNL1        0.0776
      2 C         142.7510  140.3807  158.0106 C.ar    1  UNL1        0.0417
      3 C         143.9816  141.2218  157.8433 C.ar    1  UNL1        0.0098
      4 C         144.4847  142.0509  158.9876 C.ar    1  UNL1        0.0198
      5 C         143.7572  142.0389  160.2993 C.ar    1  UNL1        0.0844
      6 N         144.2603  142.8680  161.4436 N.ar    1  UNL1       -0.2119
      7 C         143.5327  142.8560  162.7552 C.ar    1  UNL1        0.2211
      8 C         142.3020  142.0149  162.9226 C.ar    1  UNL1        0.0373
      9 C         141.7989  141.1858  161.7783 C.ar    1  UNL1        0.0023
     10 C         142.5265  141.1978  160.4666 C.ar    1  UNL1        0.0182
     11 C         142.0235  140.3687  159.3223 C.ar    1  UNL1        0.0097
     12 C         141.2417  137.8933  154.5777 C.3     1  UNL1        0.0903
     13 C         141.7448  138.7224  155.7220 C.1     1  UNL1       -0.0854
     14 C         142.2479  139.5516  156.8663 C.1     1  UNL1       -0.0643
     15 O         144.0358  143.6852  163.8995 O.3     1  UNL1       -0.4563
     16 C         143.6917  145.1430  163.9777 C.3     1  UNL1        0.2542
     17 C         140.2322  142.6617  164.3535 C.ar    1  UNL1       -0.0157
     18 C         140.0928  143.9481  165.1124 C.ar    1  UNL1       -0.0039
     19 C         138.7506  144.6069  165.2316 C.ar    1  UNL1       -0.0003
     20 C         137.5477  143.9794  164.5919 C.ar    1  UNL1       -0.0000
     21 C         137.6870  142.6931  163.8330 C.ar    1  UNL1       -0.0003
     22 C         139.0293  142.0343  163.7138 C.ar    1  UNL1       -0.0039
     23 C         142.1892  141.3321  165.4268 C.3     1  UNL1        0.1158
     24 O         142.6132  142.6685  165.9600 O.3     1  UNL1       -0.3820
     25 H         141.9946  142.9517  166.6515 H       1  UNL1        0.2107
     26 C         141.7653  139.9957  164.8936 C.ar    1  UNL1        0.0024
     27 C         142.6091  139.2943  163.8709 C.ar    1  UNL1       -0.0020
     28 C         142.1852  137.9579  163.3377 C.ar    1  UNL1       -0.0002
     29 C         140.9174  137.3229  163.8271 C.ar    1  UNL1       -0.0000
     30 C         140.0736  138.0243  164.8498 C.ar    1  UNL1       -0.0002
     31 C         138.8058  137.3893  165.3394 C.ar    1  UNL1       -0.0000
     32 C         137.9620  138.0908  166.3621 C.ar    1  UNL1       -0.0000
     33 C         138.3860  139.4272  166.8953 C.ar    1  UNL1       -0.0000
     34 C         139.6537  140.0621  166.4058 C.ar    1  UNL1       -0.0002
     35 C         140.4976  139.3607  165.3831 C.ar    1  UNL1       -0.0018
     36 C         142.8040  140.6613  166.6193 C.3     1  UNL1        0.0491
     37 C         142.9014  141.3939  167.9246 C.3     1  UNL1        0.0750
     38 N         141.7305  141.4154  168.8619 N.3     1  UNL1       -0.2702
     39 C         141.4083  140.2051  169.6874 C.3     1  UNL1        0.0897
     40 C         140.8818  142.6471  168.9736 C.3     1  UNL1        0.0897
@<TRIPOS>BOND
     1    12    13    1
     2    13    14    3
     3    14     2    1
     4     2     3   ar
     5     3     4   ar
     6     4     5   ar
     7     5     6   ar
     8     6     7   ar
     9     7    15    1
    10    15    16    1
    11     7     8   ar
    12     8     1    1
    13     1    17    1
    14    17    18   ar
    15    18    19   ar
    16    19    20   ar
    17    20    21   ar
    18    21    22   ar
    19     1    23    1
    20    23    24    1
    21    23    36    1
    22    36    37    1
    23    37    38    1
    24    38    39    1
    25    38    40    1
    26    23    26    1
    27    26    27   ar
    28    27    28   ar
    29    28    29   ar
    30    29    30   ar
    31    30    31   ar
    32    31    32   ar
    33    32    33   ar
    34    33    34   ar
    35    34    35   ar
    36     8     9   ar
    37     9    10   ar
    38    10    11   ar
    39    11     2   ar
    40    10     5   ar
    41    22    17   ar
    42    35    26   ar
    43    35    30   ar
    44    24    25    1
@<TRIPOS>MOLECULE
*****
 40 44 0 0 0
SMALL
GASTEIGER

@<TRIPOS>ATOM
      1 C         142.3587  141.7452  162.8272 C.3     1  UNL1        0.0776
      2 C         140.0361  140.7433  168.8564 C.ar    1  UNL1        0.0417
      3 C         141.2123  141.3151  169.5911 C.ar    1  UNL1        0.0098
      4 C         142.3825  141.8585  168.8260 C.ar    1  UNL1        0.0198
      5 C         142.3766  141.8302  167.3263 C.ar    1  UNL1        0.0844
      6 N         143.5468  142.3736  166.5613 N.ar    1  UNL1       -0.2119
      7 C         143.5409  142.3453  165.0616 C.ar    1  UNL1        0.2211
      8 C         142.3647  141.7735  164.3269 C.ar    1  UNL1        0.0373
      9 C         141.1944  141.2301  165.0919 C.ar    1  UNL1        0.0023
     10 C         141.2004  141.2585  166.5917 C.ar    1  UNL1        0.0182
     11 C         140.0302  140.7150  167.3567 C.ar    1  UNL1        0.0097
     12 C         136.5255  139.1131  171.1515 C.3     1  UNL1        0.0903
     13 C         137.6957  139.6565  170.3865 C.1     1  UNL1       -0.0854
     14 C         138.8659  140.1999  169.6215 C.1     1  UNL1       -0.0643
     15 O         144.7111  142.8887  164.2966 O.3     1  UNL1       -0.4563
     16 C         145.7796  141.9600  163.8008 C.3     1  UNL1        0.2542
     17 C         142.8052  140.5124  162.0985 C.ar    1  UNL1       -0.0157
     18 C         142.7973  139.1846  162.7963 C.ar    1  UNL1       -0.0039
     19 C         143.2436  137.9518  162.0677 C.ar    1  UNL1       -0.0003
     20 C         143.6979  138.0468  160.6413 C.ar    1  UNL1       -0.0000
     21 C         143.7058  139.3746  159.9436 C.ar    1  UNL1       -0.0003
     22 C         143.2594  140.6074  160.6722 C.ar    1  UNL1       -0.0039
     23 C         141.9064  142.9497  162.0561 C.3     1  UNL1        0.1158
     24 O         143.3308  143.4021  161.9272 O.3     1  UNL1       -0.3820
     25 H         143.6639  143.1738  161.0453 H       1  UNL1        0.2107
     26 C         140.4821  142.4974  162.1850 C.ar    1  UNL1        0.0024
     27 C         139.9729  141.3713  161.3350 C.ar    1  UNL1       -0.0020
     28 C         138.5486  140.9189  161.4639 C.ar    1  UNL1       -0.0002
     29 C         137.6334  141.5927  162.4429 C.ar    1  UNL1       -0.0000
     30 C         138.1425  142.7187  163.2929 C.ar    1  UNL1       -0.0002
     31 C         137.2273  143.3925  164.2720 C.ar    1  UNL1       -0.0000
     32 C         137.7365  144.5186  165.1220 C.ar    1  UNL1       -0.0000
     33 C         139.1608  144.9710  164.9931 C.ar    1  UNL1       -0.0000
     34 C         140.0760  144.2972  164.0141 C.ar    1  UNL1       -0.0002
     35 C         139.5669  143.1711  163.1640 C.ar    1  UNL1       -0.0018
     36 C         141.4541  144.1542  161.2850 C.3     1  UNL1        0.0491
     37 C         141.0909  144.0239  159.8355 C.3     1  UNL1        0.0750
     38 N         142.0718  144.4324  158.7768 N.3     1  UNL1       -0.2702
     39 C         141.9040  145.7413  158.0637 C.3     1  UNL1        0.0897
     40 C         143.2206  143.5319  158.4313 C.3     1  UNL1        0.0897
@<TRIPOS>BOND
     1    12    13    1
     2    13    14    3
     3    14     2    1
     4     2     3   ar
     5     3     4   ar
     6     4     5   ar
     7     5     6   ar
     8     6     7   ar
     9     7    15    1
    10    15    16    1
    11     7     8   ar
    12     8     1    1
    13     1    17    1
    14    17    18   ar
    15    18    19   ar
    16    19    20   ar
    17    20    21   ar
    18    21    22   ar
    19     1    23    1
    20    23    24    1
    21    23    36    1
    22    36    37    1
    23    37    38    1
    24    38    39    1
    25    38    40    1
    26    23    26    1
    27    26    27   ar
    28    27    28   ar
    29    28    29   ar
    30    29    30   ar
    31    30    31   ar
    32    31    32   ar
    33    32    33   ar
    34    33    34   ar
    35    34    35   ar
    36     8     9   ar
    37     9    10   ar
    38    10    11   ar
    39    11     2   ar
    40    10     5   ar
    41    22    17   ar
    42    35    26   ar
    43    35    30   ar
    44    24    25    1
@<TRIPOS>MOLECULE
*****
 40 44 0 0 0
SMALL
GASTEIGER

@<TRIPOS>ATOM
      1 C         140.2256  140.3625  164.1932 C.3     1  UNL1        0.0776
      2 C         138.2665  140.5252  157.9574 C.ar    1  UNL1        0.0417
      3 C         139.5574  140.0502  157.3591 C.ar    1  UNL1        0.0098
      4 C         140.7237  139.7327  158.2472 C.ar    1  UNL1        0.0198
      5 C         140.5992  139.8902  159.7337 C.ar    1  UNL1        0.0844
      6 N         141.7656  139.5727  160.6219 N.ar    1  UNL1       -0.2119
      7 C         141.6411  139.7301  162.1083 C.ar    1  UNL1        0.2211
      8 C         140.3501  140.2051  162.7067 C.ar    1  UNL1        0.0373
      9 C         139.1838  140.5226  161.8186 C.ar    1  UNL1        0.0023
     10 C         139.3084  140.3651  160.3320 C.ar    1  UNL1        0.0182
     11 C         138.1420  140.6826  159.4439 C.ar    1  UNL1        0.0097
     12 C         134.7675  141.4777  155.2929 C.3     1  UNL1        0.0903
     13 C         135.9338  141.1602  156.1811 C.1     1  UNL1       -0.0854
     14 C         137.1002  140.8427  157.0692 C.1     1  UNL1       -0.0643
     15 O         142.8074  139.4126  162.9965 O.3     1  UNL1       -0.4563
     16 C         143.9769  138.6463  162.4534 C.3     1  UNL1        0.2542
     17 C         139.4033  139.3888  164.9843 C.ar    1  UNL1       -0.0157
     18 C         139.2872  137.9635  164.5314 C.ar    1  UNL1       -0.0039
     19 C         138.4650  136.9898  165.3224 C.ar    1  UNL1       -0.0003
     20 C         137.7589  137.4414  166.5664 C.ar    1  UNL1       -0.0000
     21 C         137.8750  138.8666  167.0193 C.ar    1  UNL1       -0.0003
     22 C         138.6972  139.8403  166.2283 C.ar    1  UNL1       -0.0039
     23 C         140.9233  141.4937  164.8887 C.3     1  UNL1        0.1158
     24 O         141.8816  140.5209  165.5096 O.3     1  UNL1       -0.3820
     25 H         142.7177  140.5322  165.0180 H       1  UNL1        0.2107
     26 C         139.9651  142.4665  164.2678 C.ar    1  UNL1        0.0024
     27 C         138.5695  142.5901  164.8034 C.ar    1  UNL1       -0.0020
     28 C         137.6113  143.5628  164.1825 C.ar    1  UNL1       -0.0002
     29 C         138.0487  144.4121  163.0260 C.ar    1  UNL1       -0.0000
     30 C         139.4443  144.2885  162.4904 C.ar    1  UNL1       -0.0002
     31 C         139.8818  145.1377  161.3339 C.ar    1  UNL1       -0.0000
     32 C         141.2775  145.0142  160.7983 C.ar    1  UNL1       -0.0000
     33 C         142.2357  144.0414  161.4192 C.ar    1  UNL1       -0.0000
     34 C         141.7983  143.1922  162.5757 C.ar    1  UNL1       -0.0002
     35 C         140.4026  143.3157  163.1113 C.ar    1  UNL1       -0.0018
     36 C         141.6211  142.6248  165.5841 C.3     1  UNL1        0.0491
     37 C         143.0440  142.4666  166.0316 C.3     1  UNL1        0.0750
     38 N         144.1655  142.8837  165.1270 N.3     1  UNL1       -0.2702
     39 C         144.9728  141.8454  164.4056 C.3     1  UNL1        0.0897
     40 C         144.4797  144.3389  164.9439 C.3     1  UNL1        0.0897
@<TRIPOS>BOND
     1    12    13    1
     2    13    14    3
     3    14     2    1
     4     2     3   ar
     5     3     4   ar
     6     4     5   ar
     7     5     6   ar
     8     6     7   ar
     9     7    15    1
    10    15    16    1
    11     7     8   ar
    12     8     1    1
    13     1    17    1
    14    17    18   ar
    15    18    19   ar
    16    19    20   ar
    17    20    21   ar
    18    21    22   ar
    19     1    23    1
    20    23    24    1
    21    23    36    1
    22    36    37    1
    23    37    38    1
    24    38    39    1
    25    38    40    1
    26    23    26    1
    27    26    27   ar
    28    27    28   ar
    29    28    29   ar
    30    29    30   ar
    31    30    31   ar
    32    31    32   ar
    33    32    33   ar
    34    33    34   ar
    35    34    35   ar
    36     8     9   ar
    37     9    10   ar
    38    10    11   ar
    39    11     2   ar
    40    10     5   ar
    41    22    17   ar
    42    35    26   ar
    43    35    30   ar
    44    24    25    1
@<TRIPOS>MOLECULE
*****
 40 44 0 0 0
SMALL
GASTEIGER

@<TRIPOS>ATOM
      1 C         141.5613  141.7954  163.8730 C.3     1  UNL1        0.0776
      2 C         139.1694  140.0313  169.6967 C.ar    1  UNL1        0.0417
      3 C         140.4368  140.2358  170.4724 C.ar    1  UNL1        0.0098
      4 C         141.6757  140.7114  169.7731 C.ar    1  UNL1        0.0198
      5 C         141.6471  140.9824  168.2981 C.ar    1  UNL1        0.0844
      6 N         142.8860  141.4579  167.5987 N.ar    1  UNL1       -0.2119
      7 C         142.8574  141.7289  166.1237 C.ar    1  UNL1        0.2211
      8 C         141.5899  141.5244  165.3480 C.ar    1  UNL1        0.0373
      9 C         140.3511  141.0489  166.0473 C.ar    1  UNL1        0.0023
     10 C         140.3797  140.7779  167.5224 C.ar    1  UNL1        0.0182
     11 C         139.1408  140.3023  168.2217 C.ar    1  UNL1        0.0097
     12 C         135.4528  138.6047  171.7948 C.3     1  UNL1        0.0903
     13 C         136.6917  139.0802  171.0954 C.1     1  UNL1       -0.0854
     14 C         137.9305  139.5558  170.3961 C.1     1  UNL1       -0.0643
     15 O         144.0963  142.2045  165.4244 O.3     1  UNL1       -0.4563
     16 C         144.4683  143.6571  165.4624 C.3     1  UNL1        0.2542
     17 C         140.8122  142.9819  163.3427 C.ar    1  UNL1       -0.0157
     18 C         139.3928  143.2222  163.7642 C.ar    1  UNL1       -0.0039
     19 C         138.6436  144.4087  163.2341 C.ar    1  UNL1       -0.0003
     20 C         139.3138  145.3548  162.2825 C.ar    1  UNL1       -0.0000
     21 C         140.7332  145.1144  161.8610 C.ar    1  UNL1       -0.0003
     22 C         141.4823  143.9280  162.3911 C.ar    1  UNL1       -0.0039
     23 C         142.2819  140.8800  162.9281 C.3     1  UNL1        0.1158
     24 O         143.3340  141.9278  162.7153 O.3     1  UNL1       -0.3820
     25 H         144.1154  141.7144  163.2488 H       1  UNL1        0.2107
     26 C         141.2298  139.8322  163.1409 C.ar    1  UNL1        0.0024
     27 C         141.4105  138.7939  164.2082 C.ar    1  UNL1       -0.0020
     28 C         140.3585  137.7461  164.4210 C.ar    1  UNL1       -0.0002
     29 C         139.1257  137.7366  163.5666 C.ar    1  UNL1       -0.0000
     30 C         138.9450  138.7750  162.4993 C.ar    1  UNL1       -0.0002
     31 C         137.7122  138.7655  161.6447 C.ar    1  UNL1       -0.0000
     32 C         137.5315  139.8039  160.5774 C.ar    1  UNL1       -0.0000
     33 C         138.5836  140.8516  160.3646 C.ar    1  UNL1       -0.0000
     34 C         139.8163  140.8611  161.2191 C.ar    1  UNL1       -0.0002
     35 C         139.9971  139.8227  162.2864 C.ar    1  UNL1       -0.0018
     36 C         143.0025  139.9646  161.9832 C.3     1  UNL1        0.0491
     37 C         144.1285  140.4895  161.1428 C.3     1  UNL1        0.0750
     38 N         143.8665  140.9456  159.7380 N.3     1  UNL1       -0.2702
     39 C         143.4392  139.9554  158.6954 C.3     1  UNL1        0.0897
     40 C         144.0319  142.3918  159.3759 C.3     1  UNL1        0.0897
@<TRIPOS>BOND
     1    12    13    1
     2    13    14    3
     3    14     2    1
     4     2     3   ar
     5     3     4   ar
     6     4     5   ar
     7     5     6   ar
     8     6     7   ar
     9     7    15    1
    10    15    16    1
    11     7     8   ar
    12     8     1    1
    13     1    17    1
    14    17    18   ar
    15    18    19   ar
    16    19    20   ar
    17    20    21   ar
    18    21    22   ar
    19     1    23    1
    20    23    24    1
    21    23    36    1
    22    36    37    1
    23    37    38    1
    24    38    39    1
    25    38    40    1
    26    23    26    1
    27    26    27   ar
    28    27    28   ar
    29    28    29   ar
    30    29    30   ar
    31    30    31   ar
    32    31    32   ar
    33    32    33   ar
    34    33    34   ar
    35    34    35   ar
    36     8     9   ar
    37     9    10   ar
    38    10    11   ar
    39    11     2   ar
    40    10     5   ar
    41    22    17   ar
    42    35    26   ar
    43    35    30   ar
    44    24    25    1
