@<TRIPOS>MOLECULE
*****
 29 32 0 0 0
SMALL
GASTEIGER

@<TRIPOS>ATOM
      1 C         138.0463  139.7378  169.9464 C.ar    1  UNL1        0.2181
      2 N         137.8589  139.1504  168.5790 N.ar    1  UNL1       -0.2120
      3 C         138.8802  139.3998  167.5091 C.ar    1  UNL1        0.1091
      4 C         140.0889  140.2368  167.8065 C.ar    1  UNL1        0.1046
      5 C         140.2763  140.8243  169.1738 C.ar    1  UNL1        0.1405
      6 N         139.2550  140.5748  170.2438 N.ar    1  UNL1       -0.1987
      7 N         141.3998  141.6810  169.6777 N.pl3   1  UNL1       -0.2895
      8 C         141.2961  142.1142  171.1100 C.3     1  UNL1        0.1136
      9 C         142.6133  142.1618  168.9386 C.3     1  UNL1        0.1141
     10 C         143.0030  141.9046  167.5131 C.3     1  UNL1        0.1199
     11 N         142.2755  141.1031  166.4747 N.am    1  UNL1       -0.2533
     12 C         140.9786  140.3608  166.6053 C.2     1  UNL1        0.2570
     13 O         140.5094  139.6485  165.3714 O.2     1  UNL1       -0.2694
     14 C         142.9317  141.0349  165.1276 C.ar    1  UNL1        0.0543
     15 C         144.0234  140.0377  164.8747 C.ar    1  UNL1        0.0149
     16 C         144.6795  139.9694  163.5275 C.ar    1  UNL1        0.0014
     17 C         144.2441  140.8983  162.4333 C.ar    1  UNL1        0.0048
     18 C         143.1525  141.8956  162.6861 C.ar    1  UNL1        0.0564
     19 C         142.4963  141.9639  164.0333 C.ar    1  UNL1        0.0196
     20 C         142.7171  142.8245  161.5919 C.ar    1  UNL1        0.2496
     21 N         143.4223  143.0399  160.2856 N.ar    1  UNL1       -0.1072
     22 N         142.6411  144.0497  159.4981 N.ar    1  UNL1       -0.1114
     23 C         141.4532  144.4583  160.3177 C.ar    1  UNL1        0.2270
     24 C         140.4027  145.4501  159.9140 C.3     1  UNL1        0.0967
     25 O         141.5001  143.7012  161.6117 O.2     1  UNL1       -0.4195
     26 N         137.0251  139.4884  171.0163 N.pl3   1  UNL1       -0.3030
     27 H         136.8955  140.1472  171.7363 H       1  UNL1        0.1496
     28 C         136.1904  137.3189  172.1767 C.3     1  UNL1        0.0230
     29 C         136.2012  138.2352  170.9892 C.3     1  UNL1        0.0896
@<TRIPOS>BOND
     1    28    29    1
     2    29    26    1
     3    26     1    1
     4     1     2   ar
     5     2     3   ar
     6     3     4   ar
     7     4     5   ar
     8     5     6   ar
     9     5     7    1
    10     7     8    1
    11     7     9    1
    12     9    10    1
    13    10    11    1
    14    11    14    1
    15    14    15   ar
    16    15    16   ar
    17    16    17   ar
    18    17    18   ar
    19    18    20    1
    20    20    21   ar
    21    21    22   ar
    22    22    23   ar
    23    23    24    1
    24    23    25   ar
    25    18    19   ar
    26    11    12   am
    27    12    13    2
    28     6     1   ar
    29    19    14   ar
    30    12     4    1
    31    25    20   ar
    32    26    27    1
@<TRIPOS>MOLECULE
*****
 29 32 0 0 0
SMALL
GASTEIGER

@<TRIPOS>ATOM
      1 C         141.4965  144.9851  159.4090 C.ar    1  UNL1        0.2181
      2 N         140.0986  144.8515  159.9362 N.ar    1  UNL1       -0.2120
      3 C         139.7845  143.8158  160.9749 C.ar    1  UNL1        0.1091
      4 C         140.8683  142.9138  161.4864 C.ar    1  UNL1        0.1046
      5 C         142.2662  143.0475  160.9592 C.ar    1  UNL1        0.1405
      6 N         142.5803  144.0831  159.9206 N.ar    1  UNL1       -0.1987
      7 N         143.4853  142.2562  161.3303 N.pl3   1  UNL1       -0.2895
      8 C         144.7493  142.6354  160.6172 C.3     1  UNL1        0.1136
      9 C         143.6076  141.1358  162.3202 C.3     1  UNL1        0.1141
     10 C         142.5409  140.5300  163.1834 C.3     1  UNL1        0.1199
     11 N         141.0886  140.8950  163.2700 N.am    1  UNL1       -0.2533
     12 C         140.3442  141.9559  162.5147 C.2     1  UNL1        0.2570
     13 O         138.8824  142.0745  162.8296 O.2     1  UNL1       -0.2694
     14 C         140.2727  140.0930  164.2402 C.ar    1  UNL1        0.0543
     15 C         139.4606  138.9290  163.7547 C.ar    1  UNL1        0.0149
     16 C         138.6448  138.1271  164.7249 C.ar    1  UNL1        0.0014
     17 C         138.6410  138.4890  166.1805 C.ar    1  UNL1        0.0048
     18 C         139.4531  139.6531  166.6660 C.ar    1  UNL1        0.0564
     19 C         140.2689  140.4551  165.6959 C.ar    1  UNL1        0.0196
     20 C         139.4492  140.0151  168.1217 C.ar    1  UNL1        0.2496
     21 N         138.4341  139.5784  169.1361 N.ar    1  UNL1       -0.1072
     22 N         138.8174  140.1707  170.4599 N.ar    1  UNL1       -0.1114
     23 C         140.0692  140.9733  170.2636 C.ar    1  UNL1        0.2270
     24 C         140.8020  141.7380  171.3259 C.3     1  UNL1        0.0967
     25 O         140.4598  140.8772  168.8185 O.2     1  UNL1       -0.4195
     26 N         141.8106  146.0207  158.3704 N.pl3   1  UNL1       -0.3030
     27 H         142.3827  146.7888  158.5983 H       1  UNL1        0.1496
     28 C         142.0938  145.2952  155.8918 C.3     1  UNL1        0.0230
     29 C         141.2530  145.8861  156.9844 C.3     1  UNL1        0.0896
@<TRIPOS>BOND
     1    28    29    1
     2    29    26    1
     3    26     1    1
     4     1     2   ar
     5     2     3   ar
     6     3     4   ar
     7     4     5   ar
     8     5     6   ar
     9     5     7    1
    10     7     8    1
    11     7     9    1
    12     9    10    1
    13    10    11    1
    14    11    14    1
    15    14    15   ar
    16    15    16   ar
    17    16    17   ar
    18    17    18   ar
    19    18    20    1
    20    20    21   ar
    21    21    22   ar
    22    22    23   ar
    23    23    24    1
    24    23    25   ar
    25    18    19   ar
    26    11    12   am
    27    12    13    2
    28     6     1   ar
    29    19    14   ar
    30    12     4    1
    31    25    20   ar
    32    26    27    1
@<TRIPOS>MOLECULE
*****
 29 32 0 0 0
SMALL
GASTEIGER

@<TRIPOS>ATOM
      1 C         142.2397  144.1516  159.1373 C.ar    1  UNL1        0.2181
      2 N         142.5718  142.7086  159.3769 N.ar    1  UNL1       -0.2120
      3 C         141.9486  141.9768  160.5285 C.ar    1  UNL1        0.1091
      4 C         140.9934  142.6880  161.4404 C.ar    1  UNL1        0.1046
      5 C         140.6613  144.1310  161.2008 C.ar    1  UNL1        0.1405
      6 N         141.2845  144.8628  160.0493 N.ar    1  UNL1       -0.1987
      7 N         139.7417  145.0213  161.9829 N.pl3   1  UNL1       -0.2895
      8 C         139.6207  146.4308  161.4842 C.3     1  UNL1        0.1136
      9 C         138.9271  144.6887  163.1977 C.3     1  UNL1        0.1141
     10 C         138.8310  143.3834  163.9305 C.3     1  UNL1        0.1199
     11 N         139.5256  142.0884  163.6294 N.am    1  UNL1       -0.2533
     12 C         140.4880  141.7789  162.5212 C.2     1  UNL1        0.2570
     13 O         141.0145  140.3748  162.4898 O.2     1  UNL1       -0.2694
     14 C         139.2170  140.9528  164.5596 C.ar    1  UNL1        0.0543
     15 C         138.5780  139.7028  164.0311 C.ar    1  UNL1        0.0149
     16 C         138.2695  138.5672  164.9612 C.ar    1  UNL1        0.0014
     17 C         138.5999  138.6815  166.4199 C.ar    1  UNL1        0.0048
     18 C         139.2389  139.9315  166.9484 C.ar    1  UNL1        0.0564
     19 C         139.5474  141.0671  166.0183 C.ar    1  UNL1        0.0196
     20 C         139.5693  140.0458  168.4071 C.ar    1  UNL1        0.2496
     21 N         138.6607  139.6925  169.5472 N.ar    1  UNL1       -0.1072
     22 N         139.3962  139.9618  170.8265 N.ar    1  UNL1       -0.1114
     23 C         140.7591  140.4815  170.4771 C.ar    1  UNL1        0.2270
     24 C         141.8275  140.8795  171.4519 C.3     1  UNL1        0.0967
     25 O         140.8662  140.5335  168.9819 O.2     1  UNL1       -0.4195
     26 N         142.8629  144.8834  157.9858 N.pl3   1  UNL1       -0.3030
     27 H         143.8344  144.8295  157.8361 H       1  UNL1        0.1496
     28 C         141.1028  145.0134  156.0792 C.3     1  UNL1        0.0230
     29 C         142.0058  145.6975  157.0623 C.3     1  UNL1        0.0896
@<TRIPOS>BOND
     1    28    29    1
     2    29    26    1
     3    26     1    1
     4     1     2   ar
     5     2     3   ar
     6     3     4   ar
     7     4     5   ar
     8     5     6   ar
     9     5     7    1
    10     7     8    1
    11     7     9    1
    12     9    10    1
    13    10    11    1
    14    11    14    1
    15    14    15   ar
    16    15    16   ar
    17    16    17   ar
    18    17    18   ar
    19    18    20    1
    20    20    21   ar
    21    21    22   ar
    22    22    23   ar
    23    23    24    1
    24    23    25   ar
    25    18    19   ar
    26    11    12   am
    27    12    13    2
    28     6     1   ar
    29    19    14   ar
    30    12     4    1
    31    25    20   ar
    32    26    27    1
@<TRIPOS>MOLECULE
*****
 29 32 0 0 0
SMALL
GASTEIGER

@<TRIPOS>ATOM
      1 C         142.4276  138.0248  158.9688 C.ar    1  UNL1        0.2181
      2 N         143.0623  137.5596  160.2458 N.ar    1  UNL1       -0.2120
      3 C         142.4204  137.8810  161.5629 C.ar    1  UNL1        0.1091
      4 C         141.1439  138.6675  161.6030 C.ar    1  UNL1        0.1046
      5 C         140.5091  139.1327  160.3261 C.ar    1  UNL1        0.1405
      6 N         141.1510  138.8114  159.0090 N.ar    1  UNL1       -0.1987
      7 N         139.2474  139.9229  160.1425 N.pl3   1  UNL1       -0.2895
      8 C         138.8750  140.2341  158.7233 C.3     1  UNL1        0.1136
      9 C         138.3088  140.4430  161.1906 C.3     1  UNL1        0.1141
     10 C         138.4001  140.3014  162.6811 C.3     1  UNL1        0.1199
     11 N         139.4526  139.6047  163.4916 N.am    1  UNL1       -0.2533
     12 C         140.6737  138.8775  163.0118 C.2     1  UNL1        0.2570
     13 O         141.5389  138.2817  164.0825 O.2     1  UNL1       -0.2694
     14 C         139.2583  139.6398  164.9786 C.ar    1  UNL1        0.0543
     15 C         138.1928  138.7980  165.6159 C.ar    1  UNL1        0.0149
     16 C         137.9985  138.8331  167.1028 C.ar    1  UNL1        0.0014
     17 C         138.8696  139.7100  167.9525 C.ar    1  UNL1        0.0048
     18 C         139.9351  140.5519  167.3153 C.ar    1  UNL1        0.0564
     19 C         140.1294  140.5168  165.8283 C.ar    1  UNL1        0.0196
     20 C         140.8062  141.4289  168.1650 C.ar    1  UNL1        0.2496
     21 N         140.3731  142.6744  168.8799 N.ar    1  UNL1       -0.1072
     22 N         141.5626  143.2296  169.6058 N.ar    1  UNL1       -0.1114
     23 C         142.7307  142.3272  169.3396 C.ar    1  UNL1        0.2270
     24 C         144.1222  142.5063  169.8706 C.3     1  UNL1        0.0967
     25 O         142.2634  141.2143  168.4491 O.2     1  UNL1       -0.4195
     26 N         143.0694  137.7035  157.6517 N.pl3   1  UNL1       -0.3030
     27 H         143.6039  138.3859  157.1851 H       1  UNL1        0.1496
     28 C         143.6365  135.9804  155.7918 C.3     1  UNL1        0.0230
     29 C         142.8968  136.3423  157.0456 C.3     1  UNL1        0.0896
@<TRIPOS>BOND
     1    28    29    1
     2    29    26    1
     3    26     1    1
     4     1     2   ar
     5     2     3   ar
     6     3     4   ar
     7     4     5   ar
     8     5     6   ar
     9     5     7    1
    10     7     8    1
    11     7     9    1
    12     9    10    1
    13    10    11    1
    14    11    14    1
    15    14    15   ar
    16    15    16   ar
    17    16    17   ar
    18    17    18   ar
    19    18    20    1
    20    20    21   ar
    21    21    22   ar
    22    22    23   ar
    23    23    24    1
    24    23    25   ar
    25    18    19   ar
    26    11    12   am
    27    12    13    2
    28     6     1   ar
    29    19    14   ar
    30    12     4    1
    31    25    20   ar
    32    26    27    1
@<TRIPOS>MOLECULE
*****
 29 32 0 0 0
SMALL
GASTEIGER

@<TRIPOS>ATOM
      1 C         139.3274  142.6876  159.2677 C.ar    1  UNL1        0.2181
      2 N         138.3265  143.1973  160.2619 N.ar    1  UNL1       -0.2120
      3 C         138.2877  142.6249  161.6478 C.ar    1  UNL1        0.1091
      4 C         139.2496  141.5428  162.0396 C.ar    1  UNL1        0.1046
      5 C         140.2505  141.0330  161.0454 C.ar    1  UNL1        0.1405
      6 N         140.2893  141.6054  159.6595 N.ar    1  UNL1       -0.1987
      7 N         141.2912  139.9684  161.2280 N.pl3   1  UNL1       -0.2895
      8 C         142.1484  139.6839  160.0304 C.3     1  UNL1        0.1136
      9 C         141.5881  139.1504  162.4499 C.3     1  UNL1        0.1141
     10 C         140.9176  139.1953  163.7909 C.3     1  UNL1        0.1199
     11 N         139.7846  140.0690  164.2413 N.am    1  UNL1       -0.2533
     12 C         139.0423  141.1138  163.4619 C.2     1  UNL1        0.2570
     13 O         137.9479  141.8233  164.2028 O.2     1  UNL1       -0.2694
     14 C         139.3344  139.8720  165.6585 C.ar    1  UNL1        0.0543
     15 C         138.2026  138.9358  165.9626 C.ar    1  UNL1        0.0149
     16 C         137.7524  138.7387  167.3798 C.ar    1  UNL1        0.0014
     17 C         138.4339  139.4778  168.4930 C.ar    1  UNL1        0.0048
     18 C         139.5658  140.4141  168.1889 C.ar    1  UNL1        0.0564
     19 C         140.0160  140.6112  166.7717 C.ar    1  UNL1        0.0196
     20 C         140.2474  141.1532  169.3020 C.ar    1  UNL1        0.2496
     21 N         139.7714  141.2434  170.7216 N.ar    1  UNL1       -0.1072
     22 N         140.7545  142.0779  171.4880 N.ar    1  UNL1       -0.1114
     23 C         141.8379  142.5035  170.5420 C.ar    1  UNL1        0.2270
     24 C         143.0262  143.3516  170.8866 C.3     1  UNL1        0.0967
     25 O         141.5246  141.9321  169.1910 O.2     1  UNL1       -0.4195
     26 N         139.3663  143.2600  157.8818 N.pl3   1  UNL1       -0.3030
     27 H         138.7961  142.8787  157.1755 H       1  UNL1        0.1496
     28 C         140.5168  145.4748  158.6035 C.3     1  UNL1        0.0230
     29 C         140.2738  144.4133  157.5718 C.3     1  UNL1        0.0896
@<TRIPOS>BOND
     1    28    29    1
     2    29    26    1
     3    26     1    1
     4     1     2   ar
     5     2     3   ar
     6     3     4   ar
     7     4     5   ar
     8     5     6   ar
     9     5     7    1
    10     7     8    1
    11     7     9    1
    12     9    10    1
    13    10    11    1
    14    11    14    1
    15    14    15   ar
    16    15    16   ar
    17    16    17   ar
    18    17    18   ar
    19    18    20    1
    20    20    21   ar
    21    21    22   ar
    22    22    23   ar
    23    23    24    1
    24    23    25   ar
    25    18    19   ar
    26    11    12   am
    27    12    13    2
    28     6     1   ar
    29    19    14   ar
    30    12     4    1
    31    25    20   ar
    32    26    27    1
@<TRIPOS>MOLECULE
*****
 29 32 0 0 0
SMALL
GASTEIGER

@<TRIPOS>ATOM
      1 C         143.2884  139.8540  159.4662 C.ar    1  UNL1        0.2181
      2 N         143.6883  138.9943  160.6285 N.ar    1  UNL1       -0.2120
      3 C         142.8801  139.0179  161.8919 C.ar    1  UNL1        0.1091
      4 C         141.6719  139.9011  161.9930 C.ar    1  UNL1        0.1046
      5 C         141.2720  140.7608  160.8306 C.ar    1  UNL1        0.1405
      6 N         142.0803  140.7372  159.5672 N.ar    1  UNL1       -0.1987
      7 N         140.1125  141.7061  160.7219 N.pl3   1  UNL1       -0.2895
      8 C         139.9816  142.4277  159.4134 C.3     1  UNL1        0.1136
      9 C         139.0664  142.0253  161.7485 C.3     1  UNL1        0.1141
     10 C         138.9217  141.4779  163.1375 C.3     1  UNL1        0.1199
     11 N         139.7871  140.4762  163.8429 N.am    1  UNL1       -0.2533
     12 C         141.0111  139.7744  163.3336 C.2     1  UNL1        0.2570
     13 O         141.6600  138.8198  164.2915 O.2     1  UNL1       -0.2694
     14 C         139.3739  140.1305  165.2429 C.ar    1  UNL1        0.0543
     15 C         138.3602  139.0507  165.4807 C.ar    1  UNL1        0.0149
     16 C         137.9471  138.7050  166.8806 C.ar    1  UNL1        0.0014
     17 C         138.5475  139.4391  168.0427 C.ar    1  UNL1        0.0048
     18 C         139.5613  140.5189  167.8049 C.ar    1  UNL1        0.0564
     19 C         139.9745  140.8645  166.4050 C.ar    1  UNL1        0.0196
     20 C         140.1618  141.2529  168.9671 C.ar    1  UNL1        0.2496
     21 N         139.5601  141.3808  170.3351 N.ar    1  UNL1       -0.1072
     22 N         140.4958  142.1949  171.1788 N.ar    1  UNL1       -0.1114
     23 C         141.6758  142.5700  170.3322 C.ar    1  UNL1        0.2270
     24 C         142.8552  143.3844  170.7747 C.3     1  UNL1        0.0967
     25 O         141.4694  141.9879  168.9652 O.2     1  UNL1       -0.4195
     26 N         144.0966  139.8304  158.2027 N.pl3   1  UNL1       -0.3030
     27 H         144.2205  138.9852  157.7133 H       1  UNL1        0.1496
     28 C         145.5584  141.0636  156.4442 C.3     1  UNL1        0.0230
     29 C         144.7161  141.0946  157.6850 C.3     1  UNL1        0.0896
@<TRIPOS>BOND
     1    28    29    1
     2    29    26    1
     3    26     1    1
     4     1     2   ar
     5     2     3   ar
     6     3     4   ar
     7     4     5   ar
     8     5     6   ar
     9     5     7    1
    10     7     8    1
    11     7     9    1
    12     9    10    1
    13    10    11    1
    14    11    14    1
    15    14    15   ar
    16    15    16   ar
    17    16    17   ar
    18    17    18   ar
    19    18    20    1
    20    20    21   ar
    21    21    22   ar
    22    22    23   ar
    23    23    24    1
    24    23    25   ar
    25    18    19   ar
    26    11    12   am
    27    12    13    2
    28     6     1   ar
    29    19    14   ar
    30    12     4    1
    31    25    20   ar
    32    26    27    1
@<TRIPOS>MOLECULE
*****
 29 32 0 0 0
SMALL
GASTEIGER

@<TRIPOS>ATOM
      1 C         141.3472  145.0491  158.5978 C.ar    1  UNL1        0.2181
      2 N         139.9759  144.8488  159.1718 N.ar    1  UNL1       -0.2120
      3 C         139.7195  143.7193  160.1250 C.ar    1  UNL1        0.1091
      4 C         140.8343  142.7902  160.5041 C.ar    1  UNL1        0.1046
      5 C         142.2055  142.9905  159.9302 C.ar    1  UNL1        0.1405
      6 N         142.4620  144.1200  158.9770 N.ar    1  UNL1       -0.1987
      7 N         143.4480  142.1861  160.1737 N.pl3   1  UNL1       -0.2895
      8 C         144.6746  142.6459  159.4430 C.3     1  UNL1        0.1136
      9 C         143.6261  140.9827  161.0514 C.3     1  UNL1        0.1141
     10 C         142.6056  140.2866  161.9022 C.3     1  UNL1        0.1199
     11 N         141.1551  140.6218  162.0856 N.am    1  UNL1       -0.2533
     12 C         140.3667  141.7361  161.4634 C.2     1  UNL1        0.2570
     13 O         138.9196  141.8052  161.8518 O.2     1  UNL1       -0.2694
     14 C         140.3920  139.7242  163.0140 C.ar    1  UNL1        0.0543
     15 C         139.6716  138.5245  162.4737 C.ar    1  UNL1        0.0149
     16 C         138.9085  137.6268  163.4020 C.ar    1  UNL1        0.0014
     17 C         138.8657  137.9288  164.8707 C.ar    1  UNL1        0.0048
     18 C         139.5861  139.1285  165.4110 C.ar    1  UNL1        0.0564
     19 C         140.3492  140.0262  164.4827 C.ar    1  UNL1        0.0196
     20 C         139.5433  139.4305  166.8796 C.ar    1  UNL1        0.2496
     21 N         138.3721  139.2115  167.7910 N.ar    1  UNL1       -0.1072
     22 N         138.7691  139.6501  169.1694 N.ar    1  UNL1       -0.1114
     23 C         140.1855  140.1401  169.1100 C.ar    1  UNL1        0.2270
     24 C         140.9834  140.6724  170.2633 C.3     1  UNL1        0.0967
     25 O         140.6640  140.0044  167.6949 O.2     1  UNL1       -0.4195
     26 N         141.6036  146.1786  157.6447 N.pl3   1  UNL1       -0.3030
     27 H         142.1674  146.9371  157.9205 H       1  UNL1        0.1496
     28 C         140.9872  144.8767  155.4826 C.3     1  UNL1        0.0230
     29 C         141.0011  146.1525  156.2713 C.3     1  UNL1        0.0896
@<TRIPOS>BOND
     1    28    29    1
     2    29    26    1
     3    26     1    1
     4     1     2   ar
     5     2     3   ar
     6     3     4   ar
     7     4     5   ar
     8     5     6   ar
     9     5     7    1
    10     7     8    1
    11     7     9    1
    12     9    10    1
    13    10    11    1
    14    11    14    1
    15    14    15   ar
    16    15    16   ar
    17    16    17   ar
    18    17    18   ar
    19    18    20    1
    20    20    21   ar
    21    21    22   ar
    22    22    23   ar
    23    23    24    1
    24    23    25   ar
    25    18    19   ar
    26    11    12   am
    27    12    13    2
    28     6     1   ar
    29    19    14   ar
    30    12     4    1
    31    25    20   ar
    32    26    27    1
@<TRIPOS>MOLECULE
*****
 29 32 0 0 0
SMALL
GASTEIGER

@<TRIPOS>ATOM
      1 C         138.0570  140.4827  162.2138 C.ar    1  UNL1        0.2181
      2 N         137.6068  140.1134  160.8314 N.ar    1  UNL1       -0.2120
      3 C         138.5721  139.4834  159.8716 C.ar    1  UNL1        0.1091
      4 C         139.9876  139.2228  160.2940 C.ar    1  UNL1        0.1046
      5 C         140.4377  139.5922  161.6763 C.ar    1  UNL1        0.1405
      6 N         139.4725  140.2221  162.6362 N.ar    1  UNL1       -0.1987
      7 N         141.7931  139.4205  162.2956 N.pl3   1  UNL1       -0.2895
      8 C         141.9262  139.8950  163.7123 C.3     1  UNL1        0.1136
      9 C         143.0331  138.8370  161.6855 C.3     1  UNL1        0.1141
     10 C         143.2238  138.2812  160.3055 C.3     1  UNL1        0.1199
     11 N         142.2218  138.1715  159.1947 N.am    1  UNL1       -0.2533
     12 C         140.7815  138.5906  159.1895 C.2     1  UNL1        0.2570
     13 O         140.0368  138.3448  157.9109 O.2     1  UNL1       -0.2694
     14 C         142.7268  137.5621  157.9205 C.ar    1  UNL1        0.0543
     15 C         143.2265  138.4433  156.8141 C.ar    1  UNL1        0.0149
     16 C         143.7315  137.8340  155.5399 C.ar    1  UNL1        0.0014
     17 C         143.7369  136.3434  155.3720 C.ar    1  UNL1        0.0048
     18 C         143.2373  135.4622  156.4783 C.ar    1  UNL1        0.0564
     19 C         142.7322  136.0715  157.7525 C.ar    1  UNL1        0.0196
     20 C         143.2427  133.9717  156.3103 C.ar    1  UNL1        0.2496
     21 N         142.0599  133.0625  156.4668 N.ar    1  UNL1       -0.1072
     22 N         142.5180  131.6575  156.2096 N.ar    1  UNL1       -0.1114
     23 C         143.9839  131.6984  155.8942 C.ar    1  UNL1        0.2270
     24 C         144.8499  130.5164  155.5729 C.3     1  UNL1        0.0967
     25 O         144.4318  133.1285  155.9564 O.2     1  UNL1       -0.4195
     26 N         137.0917  141.1127  163.1737 N.pl3   1  UNL1       -0.3030
     27 H         136.1242  140.9657  163.0663 H       1  UNL1        0.1496
     28 C         137.7227  143.4504  164.1153 C.3     1  UNL1        0.0230
     29 C         137.6005  141.9665  164.2970 C.3     1  UNL1        0.0896
@<TRIPOS>BOND
     1    28    29    1
     2    29    26    1
     3    26     1    1
     4     1     2   ar
     5     2     3   ar
     6     3     4   ar
     7     4     5   ar
     8     5     6   ar
     9     5     7    1
    10     7     8    1
    11     7     9    1
    12     9    10    1
    13    10    11    1
    14    11    14    1
    15    14    15   ar
    16    15    16   ar
    17    16    17   ar
    18    17    18   ar
    19    18    20    1
    20    20    21   ar
    21    21    22   ar
    22    22    23   ar
    23    23    24    1
    24    23    25   ar
    25    18    19   ar
    26    11    12   am
    27    12    13    2
    28     6     1   ar
    29    19    14   ar
    30    12     4    1
    31    25    20   ar
    32    26    27    1
@<TRIPOS>MOLECULE
*****
 29 32 0 0 0
SMALL
GASTEIGER

@<TRIPOS>ATOM
      1 C         140.8694  145.3311  156.9975 C.ar    1  UNL1        0.2181
      2 N         140.2170  145.8349  158.2507 N.ar    1  UNL1       -0.2120
      3 C         140.6970  145.3588  159.5897 C.ar    1  UNL1        0.1091
      4 C         141.8294  144.3789  159.6755 C.ar    1  UNL1        0.1046
      5 C         142.4818  143.8751  158.4223 C.ar    1  UNL1        0.1405
      6 N         142.0018  144.3512  157.0833 N.ar    1  UNL1       -0.1987
      7 N         143.6165  142.9038  158.2841 N.pl3   1  UNL1       -0.2895
      8 C         144.0454  142.5996  156.8793 C.3     1  UNL1        0.1136
      9 C         144.3790  142.1964  159.3650 C.3     1  UNL1        0.1141
     10 C         144.1951  142.2856  160.8509 C.3     1  UNL1        0.1199
     11 N         143.2033  143.1042  161.6231 N.am    1  UNL1       -0.2533
     12 C         142.1505  144.0359  161.1000 C.2     1  UNL1        0.2570
     13 O         141.3073  144.7141  162.1387 O.2     1  UNL1       -0.2694
     14 C         143.2737  142.9740  163.1158 C.ar    1  UNL1        0.0543
     15 C         144.4065  143.6036  163.8710 C.ar    1  UNL1        0.0149
     16 C         144.4769  143.4734  165.3637 C.ar    1  UNL1        0.0014
     17 C         143.4145  142.7137  166.1012 C.ar    1  UNL1        0.0048
     18 C         142.2815  142.0841  165.3460 C.ar    1  UNL1        0.0564
     19 C         142.2112  142.2143  163.8533 C.ar    1  UNL1        0.0196
     20 C         141.2191  141.3244  166.0835 C.ar    1  UNL1        0.2496
     21 N         140.2237  140.3829  165.4728 N.ar    1  UNL1       -0.1072
     22 N         139.3548  139.8494  166.5731 N.ar    1  UNL1       -0.1114
     23 C         139.8132  140.4611  167.8636 C.ar    1  UNL1        0.2270
     24 C         139.2231  140.2060  169.2189 C.3     1  UNL1        0.0967
     25 O         140.9654  141.3727  167.5611 O.2     1  UNL1       -0.4195
     26 N         140.3894  145.8071  155.6585 N.pl3   1  UNL1       -0.3030
     27 H         140.5440  145.2578  154.8563 H       1  UNL1        0.1496
     28 C         139.8379  147.9567  154.3075 C.3     1  UNL1        0.0230
     29 C         139.6737  147.1202  155.5417 C.3     1  UNL1        0.0896
@<TRIPOS>BOND
     1    28    29    1
     2    29    26    1
     3    26     1    1
     4     1     2   ar
     5     2     3   ar
     6     3     4   ar
     7     4     5   ar
     8     5     6   ar
     9     5     7    1
    10     7     8    1
    11     7     9    1
    12     9    10    1
    13    10    11    1
    14    11    14    1
    15    14    15   ar
    16    15    16   ar
    17    16    17   ar
    18    17    18   ar
    19    18    20    1
    20    20    21   ar
    21    21    22   ar
    22    22    23   ar
    23    23    24    1
    24    23    25   ar
    25    18    19   ar
    26    11    12   am
    27    12    13    2
    28     6     1   ar
    29    19    14   ar
    30    12     4    1
    31    25    20   ar
    32    26    27    1
