@<TRIPOS>MOLECULE
*****
 28 30 0 0 0
SMALL
GASTEIGER

@<TRIPOS>ATOM
      1 C         142.2427  140.3454  168.4898 C.ar    1  UNL1        0.1219
      2 C         142.8207  140.1992  167.1134 C.ar    1  UNL1        0.0199
      3 C         142.4460  141.1726  166.0353 C.ar    1  UNL1        0.0014
      4 C         141.4933  142.2921  166.3336 C.ar    1  UNL1        0.0001
      5 C         140.9154  142.4383  167.7100 C.ar    1  UNL1        0.0014
      6 C         141.2901  141.4650  168.7881 C.ar    1  UNL1        0.0199
      7 C         141.1187  143.2654  165.2556 C.ar    1  UNL1       -0.0000
      8 C         139.6873  143.6793  165.0832 C.ar    1  UNL1       -0.0003
      9 C         139.3126  144.6526  164.0051 C.ar    1  UNL1       -0.0042
     10 C         140.3693  145.2121  163.0994 C.ar    1  UNL1       -0.0208
     11 C         141.8007  144.7982  163.2718 C.ar    1  UNL1       -0.0042
     12 C         142.1754  143.8248  164.3499 C.ar    1  UNL1       -0.0003
     13 C         139.9946  146.1854  162.0213 C.3     1  UNL1        0.0437
     14 C         139.8892  145.7241  160.5980 C.3     1  UNL1        0.0768
     15 N         140.4556  144.3944  160.1966 N.3     1  UNL1       -0.2737
     16 C         141.7993  144.1605  159.5723 C.3     1  UNL1        0.0721
     17 C         141.9518  142.6866  159.3389 C.3     1  UNL1        0.0187
     18 C         140.7024  142.0096  159.8190 C.3     1  UNL1        0.0174
     19 C         139.7776  143.0650  160.3491 C.3     1  UNL1        0.0576
     20 C         138.4143  142.8320  160.9296 C.3     1  UNL1        0.0173
     21 S         142.6174  139.3721  169.5679 S.O2    1  UNL1        0.0602
     22 O         143.2612  138.4854  168.5436 O.2     1  UNL1       -0.1530
     23 O         141.9736  140.2589  170.5922 O.2     1  UNL1       -0.1530
     24 N         142.9920  138.3988  170.6460 N.3     1  UNL1       -0.1794
     25 H         143.5598  138.9111  171.3209 H       1  UNL1        0.1488
     26 C         143.7505  137.1518  170.3001 C.3     1  UNL1        0.0914
     27 C         145.6560  135.9258  171.5714 C.3     1  UNL1        0.0015
     28 C         144.1965  136.2194  171.3871 C.3     1  UNL1        0.0188
@<TRIPOS>BOND
     1    27    28    1
     2    28    26    1
     3    26    24    1
     4    24    21    1
     5    21    22    2
     6    21    23    2
     7    21     1    1
     8     1     2   ar
     9     2     3   ar
    10     3     4   ar
    11     4     7    1
    12     7     8   ar
    13     8     9   ar
    14     9    10   ar
    15    10    13    1
    16    13    14    1
    17    14    15    1
    18    15    16    1
    19    16    17    1
    20    17    18    1
    21    18    19    1
    22    19    20    1
    23    10    11   ar
    24    11    12   ar
    25     4     5   ar
    26     5     6   ar
    27     6     1   ar
    28    12     7   ar
    29    19    15    1
    30    24    25    1
@<TRIPOS>MOLECULE
*****
 28 30 0 0 0
SMALL
GASTEIGER

@<TRIPOS>ATOM
      1 C         142.5280  142.5433  169.3811 C.ar    1  UNL1        0.1219
      2 C         141.1968  142.9514  168.8232 C.ar    1  UNL1        0.0199
      3 C         140.5321  142.1080  167.7759 C.ar    1  UNL1        0.0014
      4 C         141.1986  140.8565  167.2865 C.ar    1  UNL1        0.0001
      5 C         142.5298  140.4484  167.8445 C.ar    1  UNL1        0.0014
      6 C         143.1945  141.2919  168.8918 C.ar    1  UNL1        0.0199
      7 C         140.5339  140.0131  166.2392 C.ar    1  UNL1       -0.0000
      8 C         139.0890  139.6375  166.3846 C.ar    1  UNL1       -0.0003
      9 C         138.4243  138.7941  165.3373 C.ar    1  UNL1       -0.0042
     10 C         139.2045  138.3263  164.1446 C.ar    1  UNL1       -0.0208
     11 C         140.6494  138.7019  163.9993 C.ar    1  UNL1       -0.0042
     12 C         141.3141  139.5453  165.0466 C.ar    1  UNL1       -0.0003
     13 C         138.5398  137.4829  163.0973 C.3     1  UNL1        0.0437
     14 C         137.9269  138.1300  161.8909 C.3     1  UNL1        0.0768
     15 N         138.5630  139.3476  161.2884 N.3     1  UNL1       -0.2737
     16 C         139.5590  139.3585  160.1669 C.3     1  UNL1        0.0721
     17 C         139.9264  140.7856  159.8869 C.3     1  UNL1        0.0187
     18 C         139.1574  141.6568  160.8355 C.3     1  UNL1        0.0174
     19 C         138.3148  140.7680  161.7017 C.3     1  UNL1        0.0576
     20 C         137.3869  141.2203  162.7899 C.3     1  UNL1        0.0173
     21 S         143.1926  143.3868  170.4284 S.O2    1  UNL1        0.0602
     22 O         144.5145  142.7628  170.0920 O.2     1  UNL1       -0.1530
     23 O         141.8707  144.0108  170.7648 O.2     1  UNL1       -0.1530
     24 N         143.8573  144.2302  171.4757 N.3     1  UNL1       -0.1794
     25 H         143.3228  145.0966  171.5389 H       1  UNL1        0.1488
     26 C         145.2975  144.6201  171.3218 C.3     1  UNL1        0.0914
     27 C         146.7592  146.0394  172.9340 C.3     1  UNL1        0.0015
     28 C         145.7687  145.9577  171.8105 C.3     1  UNL1        0.0188
@<TRIPOS>BOND
     1    27    28    1
     2    28    26    1
     3    26    24    1
     4    24    21    1
     5    21    22    2
     6    21    23    2
     7    21     1    1
     8     1     2   ar
     9     2     3   ar
    10     3     4   ar
    11     4     7    1
    12     7     8   ar
    13     8     9   ar
    14     9    10   ar
    15    10    13    1
    16    13    14    1
    17    14    15    1
    18    15    16    1
    19    16    17    1
    20    17    18    1
    21    18    19    1
    22    19    20    1
    23    10    11   ar
    24    11    12   ar
    25     4     5   ar
    26     5     6   ar
    27     6     1   ar
    28    12     7   ar
    29    19    15    1
    30    24    25    1
@<TRIPOS>MOLECULE
*****
 28 30 0 0 0
SMALL
GASTEIGER

@<TRIPOS>ATOM
      1 C         141.7704  139.6041  167.8613 C.ar    1  UNL1        0.1219
      2 C         140.6744  139.9140  166.8852 C.ar    1  UNL1        0.0199
      3 C         140.8481  139.5828  165.4326 C.ar    1  UNL1        0.0014
      4 C         142.1177  138.9418  164.9560 C.ar    1  UNL1        0.0001
      5 C         143.2136  138.6319  165.9321 C.ar    1  UNL1        0.0014
      6 C         143.0400  138.9630  167.3848 C.ar    1  UNL1        0.0199
      7 C         142.2913  138.6106  163.5034 C.ar    1  UNL1       -0.0000
      8 C         143.6667  138.5427  162.9088 C.ar    1  UNL1       -0.0003
      9 C         143.8404  138.2115  161.4562 C.ar    1  UNL1       -0.0042
     10 C         142.6386  137.9483  160.5981 C.ar    1  UNL1       -0.0208
     11 C         141.2632  138.0162  161.1927 C.ar    1  UNL1       -0.0042
     12 C         141.0895  138.3474  162.6453 C.ar    1  UNL1       -0.0003
     13 C         142.8122  137.6171  159.1455 C.3     1  UNL1        0.0437
     14 C         142.4382  138.6225  158.0971 C.3     1  UNL1        0.0768
     15 N         143.5050  139.4255  157.4135 N.3     1  UNL1       -0.2737
     16 C         144.0573  139.1714  156.0423 C.3     1  UNL1        0.0721
     17 C         145.1004  140.2124  155.7624 C.3     1  UNL1        0.0187
     18 C         145.1927  141.1099  156.9607 C.3     1  UNL1        0.0174
     19 C         144.2067  140.6236  157.9812 C.3     1  UNL1        0.0576
     20 C         143.9648  141.2290  159.3320 C.3     1  UNL1        0.0173
     21 S         141.5967  139.9353  169.3140 S.O2    1  UNL1        0.0602
     22 O         143.0853  140.0356  169.4690 O.2     1  UNL1       -0.1530
     23 O         140.1081  139.8349  169.1589 O.2     1  UNL1       -0.1530
     24 N         141.4231  140.2664  170.7666 N.3     1  UNL1       -0.1794
     25 H         140.5234  139.8792  171.0514 H       1  UNL1        0.1488
     26 C         141.4408  141.6971  171.2170 C.3     1  UNL1        0.0914
     27 C         140.4206  143.4720  169.6174 C.3     1  UNL1        0.0015
     28 C         141.6204  142.7972  170.2133 C.3     1  UNL1        0.0188
@<TRIPOS>BOND
     1    27    28    1
     2    28    26    1
     3    26    24    1
     4    24    21    1
     5    21    22    2
     6    21    23    2
     7    21     1    1
     8     1     2   ar
     9     2     3   ar
    10     3     4   ar
    11     4     7    1
    12     7     8   ar
    13     8     9   ar
    14     9    10   ar
    15    10    13    1
    16    13    14    1
    17    14    15    1
    18    15    16    1
    19    16    17    1
    20    17    18    1
    21    18    19    1
    22    19    20    1
    23    10    11   ar
    24    11    12   ar
    25     4     5   ar
    26     5     6   ar
    27     6     1   ar
    28    12     7   ar
    29    19    15    1
    30    24    25    1
@<TRIPOS>MOLECULE
*****
 28 30 0 0 0
SMALL
GASTEIGER

@<TRIPOS>ATOM
      1 C         141.6561  139.6056  167.9036 C.ar    1  UNL1        0.1219
      2 C         142.9688  139.0511  167.4352 C.ar    1  UNL1        0.0199
      3 C         143.1666  138.7137  165.9871 C.ar    1  UNL1        0.0014
      4 C         142.0517  138.9307  165.0074 C.ar    1  UNL1        0.0001
      5 C         140.7391  139.4852  165.4758 C.ar    1  UNL1        0.0014
      6 C         140.5413  139.8226  166.9239 C.ar    1  UNL1        0.0199
      7 C         142.2495  138.5933  163.5593 C.ar    1  UNL1       -0.0000
      8 C         143.6338  138.5398  162.9840 C.ar    1  UNL1       -0.0003
      9 C         143.8316  138.2024  161.5359 C.ar    1  UNL1       -0.0042
     10 C         142.6452  137.9185  160.6631 C.ar    1  UNL1       -0.0208
     11 C         141.2609  137.9720  161.2384 C.ar    1  UNL1       -0.0042
     12 C         141.0631  138.3094  162.6865 C.ar    1  UNL1       -0.0003
     13 C         142.8430  137.5810  159.2150 C.3     1  UNL1        0.0437
     14 C         142.1722  138.4033  158.1549 C.3     1  UNL1        0.0768
     15 N         141.3074  137.7385  157.1252 N.3     1  UNL1       -0.2737
     16 C         139.8115  137.8168  157.0466 C.3     1  UNL1        0.0721
     17 C         139.3662  137.0054  155.8662 C.3     1  UNL1        0.0187
     18 C         140.5869  136.4256  155.2153 C.3     1  UNL1        0.0174
     19 C         141.7867  136.8787  155.9933 C.3     1  UNL1        0.0576
     20 C         143.2148  136.5327  155.6925 C.3     1  UNL1        0.0173
     21 S         141.4583  139.9430  169.3517 S.O2    1  UNL1        0.0602
     22 O         139.9837  139.7115  169.2042 O.2     1  UNL1       -0.1530
     23 O         142.9330  140.1745  169.4992 O.2     1  UNL1       -0.1530
     24 N         141.2605  140.2804  170.7998 N.3     1  UNL1       -0.1794
     25 H         140.3751  139.8599  171.0819 H       1  UNL1        0.1488
     26 C         141.2172  141.7148  171.2366 C.3     1  UNL1        0.0914
     27 C         140.4743  143.6268  169.6421 C.3     1  UNL1        0.0015
     28 C         140.1483  142.6267  170.7115 C.3     1  UNL1        0.0188
@<TRIPOS>BOND
     1    27    28    1
     2    28    26    1
     3    26    24    1
     4    24    21    1
     5    21    22    2
     6    21    23    2
     7    21     1    1
     8     1     2   ar
     9     2     3   ar
    10     3     4   ar
    11     4     7    1
    12     7     8   ar
    13     8     9   ar
    14     9    10   ar
    15    10    13    1
    16    13    14    1
    17    14    15    1
    18    15    16    1
    19    16    17    1
    20    17    18    1
    21    18    19    1
    22    19    20    1
    23    10    11   ar
    24    11    12   ar
    25     4     5   ar
    26     5     6   ar
    27     6     1   ar
    28    12     7   ar
    29    19    15    1
    30    24    25    1
@<TRIPOS>MOLECULE
*****
 28 30 0 0 0
SMALL
GASTEIGER

@<TRIPOS>ATOM
      1 C         140.0351  138.9382  160.3235 C.ar    1  UNL1        0.1219
      2 C         140.8592  139.9730  161.0306 C.ar    1  UNL1        0.0199
      3 C         140.7184  140.1598  162.5123 C.ar    1  UNL1        0.0014
      4 C         139.7535  139.3118  163.2868 C.ar    1  UNL1        0.0001
      5 C         138.9295  138.2770  162.5797 C.ar    1  UNL1        0.0014
      6 C         139.0703  138.0902  161.0980 C.ar    1  UNL1        0.0199
      7 C         139.6127  139.4986  164.7684 C.ar    1  UNL1       -0.0000
      8 C         140.6071  140.3361  165.5166 C.ar    1  UNL1       -0.0003
      9 C         140.4663  140.5229  166.9983 C.ar    1  UNL1       -0.0042
     10 C         139.3311  139.8722  167.7317 C.ar    1  UNL1       -0.0208
     11 C         138.3368  139.0347  166.9835 C.ar    1  UNL1       -0.0042
     12 C         138.4776  138.8479  165.5019 C.ar    1  UNL1       -0.0003
     13 C         139.1903  140.0590  169.2134 C.3     1  UNL1        0.0437
     14 C         140.3911  139.9300  170.1030 C.3     1  UNL1        0.0768
     15 N         141.4685  140.9729  170.0647 N.3     1  UNL1       -0.2737
     16 C         142.9317  140.7216  169.8507 C.3     1  UNL1        0.0721
     17 C         143.6394  142.0436  169.8873 C.3     1  UNL1        0.0187
     18 C         142.6135  143.1121  170.1239 C.3     1  UNL1        0.0174
     19 C         141.2718  142.4505  170.2335 C.3     1  UNL1        0.0576
     20 C         139.9633  143.1443  170.4704 C.3     1  UNL1        0.0173
     21 S         140.1759  138.7514  158.8418 S.O2    1  UNL1        0.0602
     22 O         141.5675  138.2277  159.0401 O.2     1  UNL1       -0.1530
     23 O         138.7843  139.2750  158.6436 O.2     1  UNL1       -0.1530
     24 N         140.3167  138.5645  157.3602 N.3     1  UNL1       -0.1794
     25 H         139.9393  139.4039  156.9204 H       1  UNL1        0.1488
     26 C         139.6659  137.3929  156.6868 C.3     1  UNL1        0.0914
     27 C         141.3500  135.6778  155.7006 C.3     1  UNL1        0.0015
     28 C         140.3211  136.7508  155.5000 C.3     1  UNL1        0.0188
@<TRIPOS>BOND
     1    27    28    1
     2    28    26    1
     3    26    24    1
     4    24    21    1
     5    21    22    2
     6    21    23    2
     7    21     1    1
     8     1     2   ar
     9     2     3   ar
    10     3     4   ar
    11     4     7    1
    12     7     8   ar
    13     8     9   ar
    14     9    10   ar
    15    10    13    1
    16    13    14    1
    17    14    15    1
    18    15    16    1
    19    16    17    1
    20    17    18    1
    21    18    19    1
    22    19    20    1
    23    10    11   ar
    24    11    12   ar
    25     4     5   ar
    26     5     6   ar
    27     6     1   ar
    28    12     7   ar
    29    19    15    1
    30    24    25    1
@<TRIPOS>MOLECULE
*****
 28 30 0 0 0
SMALL
GASTEIGER

@<TRIPOS>ATOM
      1 C         142.5552  139.2666  169.3351 C.ar    1  UNL1        0.1219
      2 C         141.3802  140.0766  169.7969 C.ar    1  UNL1        0.0199
      3 C         140.5553  140.8367  168.8010 C.ar    1  UNL1        0.0014
      4 C         140.9055  140.7870  167.3433 C.ar    1  UNL1        0.0001
      5 C         142.0805  139.9771  166.8815 C.ar    1  UNL1        0.0014
      6 C         142.9054  139.2169  167.8774 C.ar    1  UNL1        0.0199
      7 C         140.0806  141.5472  166.3475 C.ar    1  UNL1       -0.0000
      8 C         140.3660  142.9967  166.0880 C.ar    1  UNL1       -0.0003
      9 C         139.5411  143.7569  165.0921 C.ar    1  UNL1       -0.0042
     10 C         138.4309  143.0676  164.3558 C.ar    1  UNL1       -0.0208
     11 C         138.1456  141.6180  164.6153 C.ar    1  UNL1       -0.0042
     12 C         138.9705  140.8578  165.6111 C.ar    1  UNL1       -0.0003
     13 C         137.6061  143.8277  163.3599 C.3     1  UNL1        0.0437
     14 C         137.9179  143.7283  161.8961 C.3     1  UNL1        0.0768
     15 N         139.3270  143.9104  161.4153 N.3     1  UNL1       -0.2737
     16 C         139.9818  145.2172  161.0786 C.3     1  UNL1        0.0721
     17 C         141.3883  144.9321  160.6420 C.3     1  UNL1        0.0187
     18 C         141.6027  143.4490  160.7088 C.3     1  UNL1        0.0174
     19 C         140.3288  142.8175  161.1867 C.3     1  UNL1        0.0576
     20 C         140.0973  141.3508  161.3989 C.3     1  UNL1        0.0173
     21 S         143.3801  138.5064  170.3309 S.O2    1  UNL1        0.0602
     22 O         143.3038  139.6661  171.2793 O.2     1  UNL1       -0.1530
     23 O         143.4563  137.3468  169.3826 O.2     1  UNL1       -0.1530
     24 N         144.2049  137.7463  171.3268 N.3     1  UNL1       -0.1794
     25 H         145.1564  138.1071  171.2576 H       1  UNL1        0.1488
     26 C         144.3008  136.2521  171.2365 C.3     1  UNL1        0.0914
     27 C         146.7542  136.2788  172.0910 C.3     1  UNL1        0.0015
     28 C         145.4745  135.5381  171.8387 C.3     1  UNL1        0.0188
@<TRIPOS>BOND
     1    27    28    1
     2    28    26    1
     3    26    24    1
     4    24    21    1
     5    21    22    2
     6    21    23    2
     7    21     1    1
     8     1     2   ar
     9     2     3   ar
    10     3     4   ar
    11     4     7    1
    12     7     8   ar
    13     8     9   ar
    14     9    10   ar
    15    10    13    1
    16    13    14    1
    17    14    15    1
    18    15    16    1
    19    16    17    1
    20    17    18    1
    21    18    19    1
    22    19    20    1
    23    10    11   ar
    24    11    12   ar
    25     4     5   ar
    26     5     6   ar
    27     6     1   ar
    28    12     7   ar
    29    19    15    1
    30    24    25    1
@<TRIPOS>MOLECULE
*****
 28 30 0 0 0
SMALL
GASTEIGER

@<TRIPOS>ATOM
      1 C         141.1948  145.2179  159.6090 C.ar    1  UNL1        0.1219
      2 C         140.3432  145.6964  160.7472 C.ar    1  UNL1        0.0199
      3 C         140.5078  145.0952  162.1116 C.ar    1  UNL1        0.0014
      4 C         141.5241  144.0154  162.3377 C.ar    1  UNL1        0.0001
      5 C         142.3757  143.5368  161.1994 C.ar    1  UNL1        0.0014
      6 C         142.2111  144.1381  159.8351 C.ar    1  UNL1        0.0199
      7 C         141.6887  143.4142  163.7020 C.ar    1  UNL1       -0.0000
      8 C         140.5694  143.4950  164.6973 C.ar    1  UNL1       -0.0003
      9 C         140.7341  142.8938  166.0616 C.ar    1  UNL1       -0.0042
     10 C         142.0180  142.2117  166.4307 C.ar    1  UNL1       -0.0208
     11 C         143.1373  142.1309  165.4354 C.ar    1  UNL1       -0.0042
     12 C         142.9727  142.7321  164.0711 C.ar    1  UNL1       -0.0003
     13 C         142.1826  141.6105  167.7950 C.3     1  UNL1        0.0437
     14 C         141.6760  140.2258  168.0706 C.3     1  UNL1        0.0768
     15 N         140.5344  139.6719  167.2706 N.3     1  UNL1       -0.2737
     16 C         139.0818  139.7497  167.6365 C.3     1  UNL1        0.0721
     17 C         138.2946  139.0688  166.5564 C.3     1  UNL1        0.0187
     18 C         139.2607  138.5701  165.5229 C.3     1  UNL1        0.0174
     19 C         140.6450  138.9429  165.9643 C.3     1  UNL1        0.0576
     20 C         141.9165  138.6398  165.2286 C.3     1  UNL1        0.0173
     21 S         141.0302  145.8191  158.2447 S.O2    1  UNL1        0.0602
     22 O         142.4795  145.5617  157.9564 O.2     1  UNL1       -0.1530
     23 O         139.5808  146.0764  158.5330 O.2     1  UNL1       -0.1530
     24 N         140.8655  146.4203  156.8803 N.3     1  UNL1       -0.1794
     25 H         141.3705  147.3065  156.8862 H       1  UNL1        0.1488
     26 C         139.4929  146.7076  156.3480 C.3     1  UNL1        0.0914
     27 C         137.7342  145.3511  155.0002 C.3     1  UNL1        0.0015
     28 C         139.0419  146.0835  155.0608 C.3     1  UNL1        0.0188
@<TRIPOS>BOND
     1    27    28    1
     2    28    26    1
     3    26    24    1
     4    24    21    1
     5    21    22    2
     6    21    23    2
     7    21     1    1
     8     1     2   ar
     9     2     3   ar
    10     3     4   ar
    11     4     7    1
    12     7     8   ar
    13     8     9   ar
    14     9    10   ar
    15    10    13    1
    16    13    14    1
    17    14    15    1
    18    15    16    1
    19    16    17    1
    20    17    18    1
    21    18    19    1
    22    19    20    1
    23    10    11   ar
    24    11    12   ar
    25     4     5   ar
    26     5     6   ar
    27     6     1   ar
    28    12     7   ar
    29    19    15    1
    30    24    25    1
@<TRIPOS>MOLECULE
*****
 28 30 0 0 0
SMALL
GASTEIGER

@<TRIPOS>ATOM
      1 C         141.3753  144.9836  159.1002 C.ar    1  UNL1        0.1219
      2 C         142.3834  143.8926  159.3086 C.ar    1  UNL1        0.0199
      3 C         142.6180  143.3409  160.6836 C.ar    1  UNL1        0.0014
      4 C         141.8446  143.8802  161.8501 C.ar    1  UNL1        0.0001
      5 C         140.8366  144.9712  161.6417 C.ar    1  UNL1        0.0014
      6 C         140.6019  145.5229  160.2667 C.ar    1  UNL1        0.0199
      7 C         142.0792  143.3285  163.2251 C.ar    1  UNL1       -0.0000
      8 C         143.3791  142.6548  163.5512 C.ar    1  UNL1       -0.0003
      9 C         143.6138  142.1031  164.9261 C.ar    1  UNL1       -0.0042
     10 C         142.5485  142.2252  165.9751 C.ar    1  UNL1       -0.0208
     11 C         141.2487  142.8989  165.6490 C.ar    1  UNL1       -0.0042
     12 C         141.0140  143.4506  164.2741 C.ar    1  UNL1       -0.0003
     13 C         142.7832  141.6735  167.3501 C.3     1  UNL1        0.0437
     14 C         142.4753  140.2351  167.6437 C.3     1  UNL1        0.0768
     15 N         141.9067  139.3555  166.5699 N.3     1  UNL1       -0.2737
     16 C         142.6894  138.4519  165.6640 C.3     1  UNL1        0.0721
     17 C         141.7220  137.7630  164.7477 C.3     1  UNL1        0.0187
     18 C         140.3413  138.2409  165.0874 C.3     1  UNL1        0.0174
     19 C         140.4554  139.2251  166.2136 C.3     1  UNL1        0.0576
     20 C         139.3181  139.9514  166.8684 C.3     1  UNL1        0.0173
     21 S         141.1407  145.5353  157.7252 S.O2    1  UNL1        0.0602
     22 O         142.4475  146.2682  157.7962 O.2     1  UNL1       -0.1530
     23 O         139.8338  144.8024  157.6541 O.2     1  UNL1       -0.1530
     24 N         140.9060  146.0870  156.3502 N.3     1  UNL1       -0.1794
     25 H         141.6560  146.7541  156.1687 H       1  UNL1        0.1488
     26 C         139.6178  146.7866  156.0325 C.3     1  UNL1        0.0914
     27 C         138.8678  149.1672  155.3111 C.3     1  UNL1        0.0015
     28 C         139.5938  147.8884  155.0149 C.3     1  UNL1        0.0188
@<TRIPOS>BOND
     1    27    28    1
     2    28    26    1
     3    26    24    1
     4    24    21    1
     5    21    22    2
     6    21    23    2
     7    21     1    1
     8     1     2   ar
     9     2     3   ar
    10     3     4   ar
    11     4     7    1
    12     7     8   ar
    13     8     9   ar
    14     9    10   ar
    15    10    13    1
    16    13    14    1
    17    14    15    1
    18    15    16    1
    19    16    17    1
    20    17    18    1
    21    18    19    1
    22    19    20    1
    23    10    11   ar
    24    11    12   ar
    25     4     5   ar
    26     5     6   ar
    27     6     1   ar
    28    12     7   ar
    29    19    15    1
    30    24    25    1
@<TRIPOS>MOLECULE
*****
 28 30 0 0 0
SMALL
GASTEIGER

@<TRIPOS>ATOM
      1 C         141.7816  139.5729  167.9186 C.ar    1  UNL1        0.1219
      2 C         143.0713  138.9920  167.4195 C.ar    1  UNL1        0.0199
      3 C         143.2378  138.6769  165.9624 C.ar    1  UNL1        0.0014
      4 C         142.1146  138.9427  165.0045 C.ar    1  UNL1        0.0001
      5 C         140.8249  139.5237  165.5036 C.ar    1  UNL1        0.0014
      6 C         140.6584  139.8388  166.9606 C.ar    1  UNL1        0.0199
      7 C         142.2811  138.6277  163.5474 C.ar    1  UNL1       -0.0000
      8 C         143.6487  138.6288  162.9313 C.ar    1  UNL1       -0.0003
      9 C         143.8152  138.3137  161.4743 C.ar    1  UNL1       -0.0042
     10 C         142.6140  137.9975  160.6333 C.ar    1  UNL1       -0.0208
     11 C         141.2464  137.9964  161.2494 C.ar    1  UNL1       -0.0042
     12 C         141.0799  138.3115  162.7064 C.ar    1  UNL1       -0.0003
     13 C         142.7805  137.6824  159.1763 C.3     1  UNL1        0.0437
     14 C         142.5959  138.7605  158.1499 C.3     1  UNL1        0.0768
     15 N         141.2692  139.4470  158.0136 N.3     1  UNL1       -0.2737
     16 C         140.1316  139.0021  157.1430 C.3     1  UNL1        0.0721
     17 C         139.0065  139.9790  157.3152 C.3     1  UNL1        0.0187
     18 C         139.4487  141.0277  158.2923 C.3     1  UNL1        0.0174
     19 C         140.8471  140.6990  158.7239 C.3     1  UNL1        0.0576
     20 C         141.6776  141.4842  159.6952 C.3     1  UNL1        0.0173
     21 S         141.6151  139.8880  169.3756 S.O2    1  UNL1        0.0602
     22 O         140.1256  139.7928  169.2260 O.2     1  UNL1       -0.1530
     23 O         143.1046  139.9833  169.5252 O.2     1  UNL1       -0.1530
     24 N         141.4486  140.2031  170.8327 N.3     1  UNL1       -0.1794
     25 H         140.6842  139.6207  171.1744 H       1  UNL1        0.1488
     26 C         141.1504  141.6075  171.2670 C.3     1  UNL1        0.0914
     27 C         140.4094  143.5590  169.7202 C.3     1  UNL1        0.0015
     28 C         141.4987  142.7594  170.3715 C.3     1  UNL1        0.0188
@<TRIPOS>BOND
     1    27    28    1
     2    28    26    1
     3    26    24    1
     4    24    21    1
     5    21    22    2
     6    21    23    2
     7    21     1    1
     8     1     2   ar
     9     2     3   ar
    10     3     4   ar
    11     4     7    1
    12     7     8   ar
    13     8     9   ar
    14     9    10   ar
    15    10    13    1
    16    13    14    1
    17    14    15    1
    18    15    16    1
    19    16    17    1
    20    17    18    1
    21    18    19    1
    22    19    20    1
    23    10    11   ar
    24    11    12   ar
    25     4     5   ar
    26     5     6   ar
    27     6     1   ar
    28    12     7   ar
    29    19    15    1
    30    24    25    1
