@<TRIPOS>MOLECULE
*****
 42 46 0 0 0
SMALL
GASTEIGER

@<TRIPOS>ATOM
      1 C         142.2851  143.1555  159.0297 C.3     1  UNL1        0.1287
      2 C         142.1296  143.3479  160.5091 C.ar    1  UNL1        0.1351
      3 N         142.5262  144.5683  161.2860 N.ar    1  UNL1       -0.2279
      4 C         142.1920  144.3284  162.7285 C.ar    1  UNL1        0.1171
      5 C         141.5889  142.9598  162.8431 C.ar    1  UNL1        0.0769
      6 N         141.5503  142.3538  161.4715 N.ar    1  UNL1       -0.3394
      7 H         141.2054  141.4605  161.2430 H       1  UNL1        0.1671
      8 C         141.1086  142.3110  164.1074 C.ar    1  UNL1        0.0172
      9 C         141.7290  142.6801  165.4223 C.ar    1  UNL1        0.0015
     10 C         141.2488  142.0314  166.6866 C.ar    1  UNL1        0.0000
     11 C         140.1481  141.0135  166.6361 C.ar    1  UNL1        0.0000
     12 C         139.6679  140.3648  167.9004 C.ar    1  UNL1        0.0000
     13 C         138.5673  139.3470  167.8499 C.ar    1  UNL1        0.0000
     14 C         137.9469  138.9778  166.5350 C.ar    1  UNL1        0.0000
     15 C         138.4271  139.6265  165.2707 C.ar    1  UNL1        0.0000
     16 C         139.5277  140.6444  165.3212 C.ar    1  UNL1        0.0000
     17 C         140.0080  141.2931  164.0569 C.ar    1  UNL1        0.0015
     18 N         141.1915  143.5872  158.0982 N.am    1  UNL1       -0.2956
     19 C         141.1432  145.0021  157.6028 C.2     1  UNL1        0.2537
     20 O         142.1885  145.9855  158.0389 O.2     1  UNL1       -0.2695
     21 H         140.5054  142.9418  157.8119 H       1  UNL1        0.1501
     22 C         140.0496  145.4337  156.6712 C.ar    1  UNL1        0.1033
     23 C         139.0295  144.5375  156.0339 C.ar    1  UNL1        0.1105
     24 N         138.1335  145.3872  155.1822 N.ar    1  UNL1       -0.2346
     25 C         138.5999  146.8086  155.2932 C.ar    1  UNL1        0.1347
     26 S         139.7841  146.8373  156.2135 S.2     1  UNL1       -0.0599
     27 C         143.5341  142.5313  158.4817 C.3     1  UNL1        0.0274
     28 C         143.9411  141.1564  158.9222 C.3     1  UNL1        0.0039
     29 C         143.4442  139.9526  158.1780 C.3     1  UNL1        0.0213
     30 C         143.1292  138.6885  158.9216 C.3     1  UNL1        0.0897
     31 C         142.3454  139.0608  161.3705 C.2     1  UNL1        0.2463
     32 O         141.0414  139.6076  160.8700 O.2     1  UNL1       -0.2701
     33 N         143.3893  138.6012  160.3962 N.am    1  UNL1       -0.3009
     34 H         144.2452  138.2423  160.7247 H       1  UNL1        0.1497
     35 C         143.7041  139.7871  163.4625 C.ar    1  UNL1        0.0296
     36 C         143.9643  139.6999  164.9372 C.ar    1  UNL1        0.0063
     37 C         143.1258  138.7989  165.7946 C.ar    1  UNL1        0.0005
     38 C         142.0272  137.9852  165.1773 C.ar    1  UNL1        0.0002
     39 C         141.7670  138.0725  163.7027 C.ar    1  UNL1        0.0050
     40 C         142.6056  138.9735  162.8452 C.ar    1  UNL1        0.0590
     41 C         145.5380  141.6139  163.2392 C.3     1  UNL1        0.0742
     42 S         144.5427  140.6881  162.6050 S.3     1  UNL1       -0.1126
@<TRIPOS>BOND
     1    41    42    1
     2    42    35    1
     3    35    36   ar
     4    36    37   ar
     5    37    38   ar
     6    38    39   ar
     7    39    40   ar
     8    40    31    1
     9    31    32    2
    10    31    33   am
    11    33    30    1
    12    30    29    1
    13    29    28    1
    14    28    27    1
    15     1    27    1
    16     1    18    1
    17    18    19   am
    18    19    20    2
    19    19    22    1
    20    22    23   ar
    21    23    24   ar
    22    24    25   ar
    23    25    26   ar
    24     1     2    1
    25     2     3   ar
    26     3     4   ar
    27     4     5   ar
    28     5     8    1
    29     8     9   ar
    30     9    10   ar
    31    10    11   ar
    32    11    12   ar
    33    12    13   ar
    34    13    14   ar
    35    14    15   ar
    36    15    16   ar
    37    16    17   ar
    38     5     6   ar
    39    40    35   ar
    40    26    22   ar
    41     6     2   ar
    42    17     8   ar
    43    16    11   ar
    44    33    34    1
    45    18    21    1
    46     6     7    1
@<TRIPOS>MOLECULE
*****
 42 46 0 0 0
SMALL
GASTEIGER

@<TRIPOS>ATOM
      1 C         142.1695  138.4669  158.0782 C.3     1  UNL1        0.1287
      2 C         142.7158  138.8814  159.4122 C.ar    1  UNL1        0.1351
      3 N         144.1054  139.3789  159.6799 N.ar    1  UNL1       -0.2279
      4 C         144.2168  139.6762  161.1460 C.ar    1  UNL1        0.1171
      5 C         142.8961  139.3625  161.7842 C.ar    1  UNL1        0.0769
      6 N         141.9684  138.8713  160.7127 N.ar    1  UNL1       -0.3394
      7 H         141.0333  138.5914  160.8406 H       1  UNL1        0.1671
      8 C         142.5618  139.5135  163.2388 C.ar    1  UNL1        0.0172
      9 C         142.7420  138.3546  164.1739 C.ar    1  UNL1        0.0015
     10 C         142.4077  138.5055  165.6284 C.ar    1  UNL1        0.0000
     11 C         141.8932  139.8154  166.1477 C.ar    1  UNL1        0.0000
     12 C         141.5589  139.9663  167.6021 C.ar    1  UNL1        0.0000
     13 C         141.0445  141.2761  168.1214 C.ar    1  UNL1        0.0000
     14 C         140.8642  142.4349  167.1862 C.ar    1  UNL1        0.0000
     15 C         141.1985  142.2840  165.7318 C.ar    1  UNL1        0.0000
     16 C         141.7130  140.9742  165.2125 C.ar    1  UNL1        0.0000
     17 C         142.0473  140.8232  163.7580 C.ar    1  UNL1        0.0015
     18 N         142.2436  137.0310  157.6507 N.am    1  UNL1       -0.2956
     19 C         143.2515  136.6049  156.6249 C.2     1  UNL1        0.2537
     20 O         144.1855  137.6146  156.0265 O.2     1  UNL1       -0.2695
     21 H         141.6306  136.3682  158.0434 H       1  UNL1        0.1501
     22 C         143.3255  135.1690  156.1974 C.ar    1  UNL1        0.1033
     23 C         143.0233  134.6406  154.8265 C.ar    1  UNL1        0.1105
     24 N         143.2257  133.1544  154.8475 N.ar    1  UNL1       -0.2346
     25 C         143.6531  132.7643  156.2315 C.ar    1  UNL1        0.1347
     26 S         143.7148  134.0095  157.0658 S.2     1  UNL1       -0.0599
     27 C         141.5491  139.4882  157.1716 C.3     1  UNL1        0.0274
     28 C         140.4173  140.3402  157.6648 C.3     1  UNL1        0.0039
     29 C         139.0703  139.7282  157.9122 C.3     1  UNL1        0.0213
     30 C         138.1088  140.3877  158.8559 C.3     1  UNL1        0.0897
     31 C         138.9098  140.3151  161.3263 C.2     1  UNL1        0.2463
     32 O         140.0124  141.2772  160.9970 O.2     1  UNL1       -0.2701
     33 N         137.9579  139.8703  160.2557 N.am    1  UNL1       -0.3009
     34 H         137.2342  139.2389  160.4718 H       1  UNL1        0.1497
     35 C         138.2330  140.6969  163.8055 C.ar    1  UNL1        0.0296
     36 C         138.0823  140.1795  165.2054 C.ar    1  UNL1        0.0063
     37 C         138.4574  138.7630  165.5259 C.ar    1  UNL1        0.0005
     38 C         138.9834  137.8639  164.4466 C.ar    1  UNL1        0.0002
     39 C         139.1342  138.3812  163.0467 C.ar    1  UNL1        0.0050
     40 C         138.7590  139.7978  162.7261 C.ar    1  UNL1        0.0590
     41 C         137.8400  143.1486  164.5704 C.3     1  UNL1        0.0742
     42 S         137.8578  142.1134  163.4849 S.3     1  UNL1       -0.1126
@<TRIPOS>BOND
     1    41    42    1
     2    42    35    1
     3    35    36   ar
     4    36    37   ar
     5    37    38   ar
     6    38    39   ar
     7    39    40   ar
     8    40    31    1
     9    31    32    2
    10    31    33   am
    11    33    30    1
    12    30    29    1
    13    29    28    1
    14    28    27    1
    15     1    27    1
    16     1    18    1
    17    18    19   am
    18    19    20    2
    19    19    22    1
    20    22    23   ar
    21    23    24   ar
    22    24    25   ar
    23    25    26   ar
    24     1     2    1
    25     2     3   ar
    26     3     4   ar
    27     4     5   ar
    28     5     8    1
    29     8     9   ar
    30     9    10   ar
    31    10    11   ar
    32    11    12   ar
    33    12    13   ar
    34    13    14   ar
    35    14    15   ar
    36    15    16   ar
    37    16    17   ar
    38     5     6   ar
    39    40    35   ar
    40    26    22   ar
    41     6     2   ar
    42    17     8   ar
    43    16    11   ar
    44    33    34    1
    45    18    21    1
    46     6     7    1
@<TRIPOS>MOLECULE
*****
 42 46 0 0 0
SMALL
GASTEIGER

@<TRIPOS>ATOM
      1 C         142.6646  143.3703  159.8769 C.3     1  UNL1        0.1287
      2 C         142.9993  143.3238  161.3383 C.ar    1  UNL1        0.1351
      3 N         143.7332  144.3811  162.1087 N.ar    1  UNL1       -0.2279
      4 C         143.8464  143.9225  163.5325 C.ar    1  UNL1        0.1171
      5 C         143.1825  142.5819  163.6419 C.ar    1  UNL1        0.0769
      6 N         142.6589  142.2119  162.2858 N.ar    1  UNL1       -0.3394
      7 H         142.1766  141.3845  162.0577 H       1  UNL1        0.1671
      8 C         143.0630  141.7563  164.8886 C.ar    1  UNL1        0.0172
      9 C         142.8133  140.2806  164.7897 C.ar    1  UNL1        0.0015
     10 C         142.6938  139.4550  166.0363 C.ar    1  UNL1        0.0000
     11 C         142.8241  140.1051  167.3819 C.ar    1  UNL1        0.0000
     12 C         142.7047  139.2795  168.6285 C.ar    1  UNL1        0.0000
     13 C         142.8350  139.9297  169.9739 C.ar    1  UNL1        0.0000
     14 C         143.0847  141.4054  170.0728 C.ar    1  UNL1        0.0000
     15 C         143.2042  142.2310  168.8262 C.ar    1  UNL1        0.0000
     16 C         143.0739  141.5809  167.4807 C.ar    1  UNL1        0.0000
     17 C         143.1933  142.4065  166.2340 C.ar    1  UNL1        0.0015
     18 N         143.7622  143.3441  158.8548 N.am    1  UNL1       -0.2956
     19 C         144.4204  142.0455  158.4941 C.2     1  UNL1        0.2537
     20 O         143.9812  140.7729  159.1554 O.2     1  UNL1       -0.2695
     21 H         144.0505  144.1794  158.4207 H       1  UNL1        0.1501
     22 C         145.5179  142.0195  157.4719 C.ar    1  UNL1        0.1033
     23 C         146.7783  142.8318  157.5108 C.ar    1  UNL1        0.1105
     24 N         147.5872  142.4909  156.2943 N.ar    1  UNL1       -0.2346
     25 C         146.8266  141.4679  155.5037 C.ar    1  UNL1        0.1347
     26 S         145.5478  141.1765  156.2315 S.2     1  UNL1       -0.0599
     27 C         141.2323  143.4429  159.4375 C.3     1  UNL1        0.0274
     28 C         140.1315  143.1774  160.4213 C.3     1  UNL1        0.0039
     29 C         138.9450  142.3543  160.0153 C.3     1  UNL1        0.0213
     30 C         138.7355  140.9947  160.6134 C.3     1  UNL1        0.0897
     31 C         138.2212  141.1326  163.1563 C.2     1  UNL1        0.2463
     32 O         136.9106  141.7971  162.8552 O.2     1  UNL1       -0.2701
     33 N         139.1337  140.7314  162.0354 N.am    1  UNL1       -0.3009
     34 H         139.9939  140.2953  162.2330 H       1  UNL1        0.1497
     35 C         139.2897  141.9448  165.3809 C.ar    1  UNL1        0.0296
     36 C         139.6879  141.6816  166.8029 C.ar    1  UNL1        0.0063
     37 C         139.4157  140.3429  167.4224 C.ar    1  UNL1        0.0005
     38 C         138.7454  139.2674  166.6199 C.ar    1  UNL1        0.0002
     39 C         138.3473  139.5306  165.1978 C.ar    1  UNL1        0.0050
     40 C         138.6194  140.8694  164.5783 C.ar    1  UNL1        0.0590
     41 C         138.6107  144.4215  164.9866 C.3     1  UNL1        0.0742
     42 S         139.5618  143.2836  164.7614 S.3     1  UNL1       -0.1126
@<TRIPOS>BOND
     1    41    42    1
     2    42    35    1
     3    35    36   ar
     4    36    37   ar
     5    37    38   ar
     6    38    39   ar
     7    39    40   ar
     8    40    31    1
     9    31    32    2
    10    31    33   am
    11    33    30    1
    12    30    29    1
    13    29    28    1
    14    28    27    1
    15     1    27    1
    16     1    18    1
    17    18    19   am
    18    19    20    2
    19    19    22    1
    20    22    23   ar
    21    23    24   ar
    22    24    25   ar
    23    25    26   ar
    24     1     2    1
    25     2     3   ar
    26     3     4   ar
    27     4     5   ar
    28     5     8    1
    29     8     9   ar
    30     9    10   ar
    31    10    11   ar
    32    11    12   ar
    33    12    13   ar
    34    13    14   ar
    35    14    15   ar
    36    15    16   ar
    37    16    17   ar
    38     5     6   ar
    39    40    35   ar
    40    26    22   ar
    41     6     2   ar
    42    17     8   ar
    43    16    11   ar
    44    33    34    1
    45    18    21    1
    46     6     7    1
@<TRIPOS>MOLECULE
*****
 42 46 0 0 0
SMALL
GASTEIGER

@<TRIPOS>ATOM
      1 C         138.5351  141.6472  159.5068 C.3     1  UNL1        0.1287
      2 C         138.5526  141.9809  160.9690 C.ar    1  UNL1        0.1351
      3 N         137.9123  143.1774  161.6081 N.ar    1  UNL1       -0.2279
      4 C         138.1775  143.1126  163.0831 C.ar    1  UNL1        0.1171
      5 C         138.9817  141.8761  163.3555 C.ar    1  UNL1        0.0769
      6 N         139.2136  141.1766  162.0490 N.ar    1  UNL1       -0.3394
      7 H         139.7120  140.3371  161.9225 H       1  UNL1        0.1671
      8 C         139.4686  141.4192  164.6988 C.ar    1  UNL1        0.0172
      9 C         138.6734  140.4189  165.4843 C.ar    1  UNL1        0.0015
     10 C         139.1602  139.9620  166.8275 C.ar    1  UNL1        0.0000
     11 C         140.4423  140.5054  167.3853 C.ar    1  UNL1        0.0000
     12 C         140.9291  140.0485  168.7285 C.ar    1  UNL1        0.0000
     13 C         142.2111  140.5919  169.2861 C.ar    1  UNL1        0.0000
     14 C         143.0064  141.5922  168.5006 C.ar    1  UNL1        0.0000
     15 C         142.5195  142.0491  167.1574 C.ar    1  UNL1        0.0000
     16 C         141.2375  141.5057  166.5997 C.ar    1  UNL1        0.0000
     17 C         140.7506  141.9626  165.2565 C.ar    1  UNL1        0.0015
     18 N         138.4899  142.7464  158.4871 N.am    1  UNL1       -0.2956
     19 C         139.7326  143.5218  158.1643 C.2     1  UNL1        0.2537
     20 O         141.0208  143.1980  158.8613 O.2     1  UNL1       -0.2695
     21 H         137.6444  142.9590  158.0297 H       1  UNL1        0.1501
     22 C         139.6872  144.6209  157.1447 C.ar    1  UNL1        0.1033
     23 C         139.1122  144.5186  155.7631 C.ar    1  UNL1        0.1105
     24 N         139.2785  145.8499  155.0920 N.ar    1  UNL1       -0.2346
     25 C         139.9564  146.7749  156.0589 C.ar    1  UNL1        0.1347
     26 S         140.2090  146.0154  157.3275 S.2     1  UNL1       -0.0599
     27 C         138.5629  140.2143  159.0641 C.3     1  UNL1        0.0274
     28 C         139.8088  139.3982  159.2421 C.3     1  UNL1        0.0039
     29 C         141.0410  139.7286  158.4531 C.3     1  UNL1        0.0213
     30 C         142.3659  139.8477  159.1463 C.3     1  UNL1        0.0897
     31 C         142.4308  140.1063  161.7306 C.2     1  UNL1        0.2463
     32 O         142.1139  141.5659  161.5925 O.2     1  UNL1       -0.2701
     33 N         142.5568  139.2472  160.5074 N.am    1  UNL1       -0.3009
     34 H         142.7648  138.2892  160.5981 H       1  UNL1        0.1497
     35 C         143.8634  139.8078  163.8775 C.ar    1  UNL1        0.0296
     36 C         144.0543  139.2073  165.2387 C.ar    1  UNL1        0.0063
     37 C         143.0035  138.3049  165.8144 C.ar    1  UNL1        0.0005
     38 C         141.7619  138.0028  165.0288 C.ar    1  UNL1        0.0002
     39 C         141.5710  138.6033  163.6676 C.ar    1  UNL1        0.0050
     40 C         142.6218  139.5059  163.0918 C.ar    1  UNL1        0.0590
     41 C         145.2209  142.0215  163.9628 C.3     1  UNL1        0.0742
     42 S         144.9142  140.7104  163.3017 S.3     1  UNL1       -0.1126
@<TRIPOS>BOND
     1    41    42    1
     2    42    35    1
     3    35    36   ar
     4    36    37   ar
     5    37    38   ar
     6    38    39   ar
     7    39    40   ar
     8    40    31    1
     9    31    32    2
    10    31    33   am
    11    33    30    1
    12    30    29    1
    13    29    28    1
    14    28    27    1
    15     1    27    1
    16     1    18    1
    17    18    19   am
    18    19    20    2
    19    19    22    1
    20    22    23   ar
    21    23    24   ar
    22    24    25   ar
    23    25    26   ar
    24     1     2    1
    25     2     3   ar
    26     3     4   ar
    27     4     5   ar
    28     5     8    1
    29     8     9   ar
    30     9    10   ar
    31    10    11   ar
    32    11    12   ar
    33    12    13   ar
    34    13    14   ar
    35    14    15   ar
    36    15    16   ar
    37    16    17   ar
    38     5     6   ar
    39    40    35   ar
    40    26    22   ar
    41     6     2   ar
    42    17     8   ar
    43    16    11   ar
    44    33    34    1
    45    18    21    1
    46     6     7    1
@<TRIPOS>MOLECULE
*****
 42 46 0 0 0
SMALL
GASTEIGER

@<TRIPOS>ATOM
      1 C         143.1329  140.1237  158.7070 C.3     1  UNL1        0.1287
      2 C         143.3472  139.6411  160.1109 C.ar    1  UNL1        0.1351
      3 N         144.2278  138.5000  160.5263 N.ar    1  UNL1       -0.2279
      4 C         144.1434  138.3686  162.0182 C.ar    1  UNL1        0.1171
      5 C         143.2107  139.4285  162.5248 C.ar    1  UNL1        0.0769
      6 N         142.7186  140.2149  161.3461 N.ar    1  UNL1       -0.3394
      7 H         142.0929  140.9744  161.3776 H       1  UNL1        0.1671
      8 C         142.8358  139.6611  163.9585 C.ar    1  UNL1        0.0172
      9 C         143.2197  138.6586  165.0061 C.ar    1  UNL1        0.0015
     10 C         142.8449  138.8911  166.4398 C.ar    1  UNL1        0.0000
     11 C         142.0862  140.1262  166.8259 C.ar    1  UNL1        0.0000
     12 C         141.7113  140.3587  168.2595 C.ar    1  UNL1        0.0000
     13 C         140.9527  141.5937  168.6455 C.ar    1  UNL1        0.0000
     14 C         140.5688  142.5963  167.5979 C.ar    1  UNL1        0.0000
     15 C         140.9436  142.3638  166.1642 C.ar    1  UNL1        0.0000
     16 C         141.7023  141.1287  165.7782 C.ar    1  UNL1        0.0000
     17 C         142.0772  140.8961  164.3445 C.ar    1  UNL1        0.0015
     18 N         144.2974  140.2441  157.7692 N.am    1  UNL1       -0.2956
     19 C         144.8472  141.5968  157.4260 C.2     1  UNL1        0.2537
     20 O         144.2325  142.8292  158.0204 O.2     1  UNL1       -0.2695
     21 H         144.7009  139.4353  157.3790 H       1  UNL1        0.1501
     22 C         146.0117  141.7172  156.4882 C.ar    1  UNL1        0.1033
     23 C         146.1541  141.0237  155.1658 C.ar    1  UNL1        0.1105
     24 N         147.4687  141.4301  154.5684 N.ar    1  UNL1       -0.2346
     25 C         148.1388  142.3748  155.5217 C.ar    1  UNL1        0.1347
     26 S         147.2383  142.5522  156.7082 S.2     1  UNL1       -0.0599
     27 C         141.7540  140.4858  158.2407 C.3     1  UNL1        0.0274
     28 C         140.9346  139.4885  157.4764 C.3     1  UNL1        0.0039
     29 C         139.7758  138.8044  158.1391 C.3     1  UNL1        0.0213
     30 C         138.8770  139.5748  159.0603 C.3     1  UNL1        0.0897
     31 C         139.2777  139.9251  161.6032 C.2     1  UNL1        0.2463
     32 O         140.0477  141.1783  161.3093 O.2     1  UNL1       -0.2701
     33 N         138.6923  139.1233  160.4787 N.am    1  UNL1       -0.3009
     34 H         138.1869  138.3008  160.6717 H       1  UNL1        0.1497
     35 C         138.2722  140.2966  163.9700 C.ar    1  UNL1        0.0296
     36 C         138.0876  139.8451  165.3885 C.ar    1  UNL1        0.0063
     37 C         138.7237  138.5707  165.8588 C.ar    1  UNL1        0.0005
     38 C         139.5445  137.7477  164.9106 C.ar    1  UNL1        0.0002
     39 C         139.7292  138.1992  163.4921 C.ar    1  UNL1        0.0050
     40 C         139.0930  139.4737  163.0217 C.ar    1  UNL1        0.0590
     41 C         137.8700  142.8479  164.2513 C.3     1  UNL1        0.0742
     42 S         137.6361  141.5710  163.4996 S.3     1  UNL1       -0.1126
@<TRIPOS>BOND
     1    41    42    1
     2    42    35    1
     3    35    36   ar
     4    36    37   ar
     5    37    38   ar
     6    38    39   ar
     7    39    40   ar
     8    40    31    1
     9    31    32    2
    10    31    33   am
    11    33    30    1
    12    30    29    1
    13    29    28    1
    14    28    27    1
    15     1    27    1
    16     1    18    1
    17    18    19   am
    18    19    20    2
    19    19    22    1
    20    22    23   ar
    21    23    24   ar
    22    24    25   ar
    23    25    26   ar
    24     1     2    1
    25     2     3   ar
    26     3     4   ar
    27     4     5   ar
    28     5     8    1
    29     8     9   ar
    30     9    10   ar
    31    10    11   ar
    32    11    12   ar
    33    12    13   ar
    34    13    14   ar
    35    14    15   ar
    36    15    16   ar
    37    16    17   ar
    38     5     6   ar
    39    40    35   ar
    40    26    22   ar
    41     6     2   ar
    42    17     8   ar
    43    16    11   ar
    44    33    34    1
    45    18    21    1
    46     6     7    1
@<TRIPOS>MOLECULE
*****
 42 46 0 0 0
SMALL
GASTEIGER

@<TRIPOS>ATOM
      1 C         142.4308  143.4099  159.1981 C.3     1  UNL1        0.1287
      2 C         142.1978  143.6829  160.6545 C.ar    1  UNL1        0.1351
      3 N         141.7791  144.9947  161.2496 N.ar    1  UNL1       -0.2279
      4 C         141.6651  144.8146  162.7345 C.ar    1  UNL1        0.1171
      5 C         142.0133  143.3916  163.0569 C.ar    1  UNL1        0.0769
      6 N         142.3425  142.6922  161.7714 N.ar    1  UNL1       -0.3394
      7 H         142.6071  141.7486  161.6773 H       1  UNL1        0.1671
      8 C         142.0294  142.7761  164.4247 C.ar    1  UNL1        0.0172
      9 C         143.2210  142.9618  165.3167 C.ar    1  UNL1        0.0015
     10 C         143.2371  142.3463  166.6845 C.ar    1  UNL1        0.0000
     11 C         142.0617  141.5451  167.1604 C.ar    1  UNL1        0.0000
     12 C         142.0778  140.9296  168.5281 C.ar    1  UNL1        0.0000
     13 C         140.9024  140.1284  169.0039 C.ar    1  UNL1        0.0000
     14 C         139.7108  139.9427  168.1120 C.ar    1  UNL1        0.0000
     15 C         139.6946  140.5582  166.7442 C.ar    1  UNL1        0.0000
     16 C         140.8701  141.3594  166.2684 C.ar    1  UNL1        0.0000
     17 C         140.8540  141.9749  164.9005 C.ar    1  UNL1        0.0015
     18 N         141.4016  143.8151  158.1849 N.am    1  UNL1       -0.2956
     19 C         141.4225  145.1988  157.6065 C.2     1  UNL1        0.2537
     20 O         142.4727  146.1776  158.0412 O.2     1  UNL1       -0.2695
     21 H         140.7122  143.1727  157.8996 H       1  UNL1        0.1501
     22 C         140.3932  145.6039  156.5934 C.ar    1  UNL1        0.1033
     23 C         139.5583  146.8493  156.6342 C.ar    1  UNL1        0.1105
     24 N         138.6672  146.8498  155.4275 N.ar    1  UNL1       -0.2346
     25 C         138.9514  145.6046  154.6409 C.ar    1  UNL1        0.1347
     26 S         140.0181  144.8345  155.3614 S.2     1  UNL1       -0.0599
     27 C         143.6931  142.7317  158.7548 C.3     1  UNL1        0.0274
     28 C         143.8046  141.2373  158.8203 C.3     1  UNL1        0.0039
     29 C         142.7443  140.3780  158.1981 C.3     1  UNL1        0.0213
     30 C         142.2974  139.1221  158.8859 C.3     1  UNL1        0.0897
     31 C         142.0091  139.4249  161.4500 C.2     1  UNL1        0.2463
     32 O         140.8185  140.3056  161.2121 O.2     1  UNL1       -0.2701
     33 N         142.7486  138.8331  160.2868 N.am    1  UNL1       -0.3009
     34 H         143.5301  138.2550  160.4429 H       1  UNL1        0.1497
     35 C         141.6050  138.3010  163.7573 C.ar    1  UNL1        0.0296
     36 C         142.0561  138.0120  165.1584 C.ar    1  UNL1        0.0063
     37 C         143.3626  138.5581  165.6532 C.ar    1  UNL1        0.0005
     38 C         144.2180  139.3931  164.7470 C.ar    1  UNL1        0.0002
     39 C         143.7668  139.6820  163.3459 C.ar    1  UNL1        0.0050
     40 C         142.4603  139.1359  162.8510 C.ar    1  UNL1        0.0590
     41 C         139.0098  138.3987  163.6809 C.3     1  UNL1        0.0742
     42 S         140.2984  137.7549  163.2624 S.3     1  UNL1       -0.1126
@<TRIPOS>BOND
     1    41    42    1
     2    42    35    1
     3    35    36   ar
     4    36    37   ar
     5    37    38   ar
     6    38    39   ar
     7    39    40   ar
     8    40    31    1
     9    31    32    2
    10    31    33   am
    11    33    30    1
    12    30    29    1
    13    29    28    1
    14    28    27    1
    15     1    27    1
    16     1    18    1
    17    18    19   am
    18    19    20    2
    19    19    22    1
    20    22    23   ar
    21    23    24   ar
    22    24    25   ar
    23    25    26   ar
    24     1     2    1
    25     2     3   ar
    26     3     4   ar
    27     4     5   ar
    28     5     8    1
    29     8     9   ar
    30     9    10   ar
    31    10    11   ar
    32    11    12   ar
    33    12    13   ar
    34    13    14   ar
    35    14    15   ar
    36    15    16   ar
    37    16    17   ar
    38     5     6   ar
    39    40    35   ar
    40    26    22   ar
    41     6     2   ar
    42    17     8   ar
    43    16    11   ar
    44    33    34    1
    45    18    21    1
    46     6     7    1
@<TRIPOS>MOLECULE
*****
 42 46 0 0 0
SMALL
GASTEIGER

@<TRIPOS>ATOM
      1 C         142.5213  138.3345  158.1816 C.3     1  UNL1        0.1287
      2 C         141.4341  138.4565  159.2077 C.ar    1  UNL1        0.1351
      3 N         139.9601  138.3636  158.9457 N.ar    1  UNL1       -0.2279
      4 C         139.2449  138.5426  160.2522 C.ar    1  UNL1        0.1171
      5 C         140.2770  138.7461  161.3214 C.ar    1  UNL1        0.0769
      6 N         141.6300  138.6929  160.6760 N.ar    1  UNL1       -0.3394
      7 H         142.4947  138.7952  161.1353 H       1  UNL1        0.1671
      8 C         140.0040  138.9645  162.7802 C.ar    1  UNL1        0.0172
      9 C         139.0306  138.0802  163.5016 C.ar    1  UNL1        0.0015
     10 C         138.7576  138.2985  164.9603 C.ar    1  UNL1        0.0000
     11 C         139.4579  139.4013  165.6976 C.ar    1  UNL1        0.0000
     12 C         139.1849  139.6196  167.1562 C.ar    1  UNL1        0.0000
     13 C         139.8852  140.7224  167.8934 C.ar    1  UNL1        0.0000
     14 C         140.8586  141.6067  167.1720 C.ar    1  UNL1        0.0000
     15 C         141.1316  141.3884  165.7133 C.ar    1  UNL1        0.0000
     16 C         140.4313  140.2857  164.9761 C.ar    1  UNL1        0.0000
     17 C         140.7043  140.0672  163.5174 C.ar    1  UNL1        0.0015
     18 N         143.0435  136.9812  157.7994 N.am    1  UNL1       -0.2956
     19 C         142.3412  136.1762  156.7466 C.2     1  UNL1        0.2537
     20 O         141.1166  136.7243  156.0758 O.2     1  UNL1       -0.2695
     21 H         143.8473  136.6214  158.2396 H       1  UNL1        0.1501
     22 C         142.8635  134.8230  156.3644 C.ar    1  UNL1        0.1033
     23 C         143.8234  133.9909  157.1620 C.ar    1  UNL1        0.1105
     24 N         144.0707  132.7179  156.4081 N.ar    1  UNL1       -0.2346
     25 C         143.2636  132.7632  155.1445 C.ar    1  UNL1        0.1347
     26 S         142.5175  134.0642  155.1175 S.2     1  UNL1       -0.0599
     27 C         143.0865  139.5657  157.5377 C.3     1  UNL1        0.0274
     28 C         143.4276  140.7616  158.3763 C.3     1  UNL1        0.0039
     29 C         142.6195  142.0193  158.2530 C.3     1  UNL1        0.0213
     30 C         141.1421  141.9899  158.5109 C.3     1  UNL1        0.0897
     31 C         139.3041  142.6471  160.2254 C.2     1  UNL1        0.2463
     32 O         138.4981  143.2682  159.1233 O.2     1  UNL1       -0.2701
     33 N         140.6261  142.0079  159.9191 N.am    1  UNL1       -0.3009
     34 H         141.1551  141.6003  160.6425 H       1  UNL1        0.1497
     35 C         139.2561  143.7212  162.5906 C.ar    1  UNL1        0.0296
     36 C         138.7400  143.7393  163.9989 C.ar    1  UNL1        0.0063
     37 C         137.7558  142.7012  164.4503 C.ar    1  UNL1        0.0005
     38 C         137.2877  141.6451  163.4935 C.ar    1  UNL1        0.0002
     39 C         137.8038  141.6271  162.0852 C.ar    1  UNL1        0.0050
     40 C         138.7880  142.6652  161.6337 C.ar    1  UNL1        0.0590
     41 C         139.7790  146.1592  161.8605 C.3     1  UNL1        0.0742
     42 S         140.2403  144.7593  162.1391 S.3     1  UNL1       -0.1126
@<TRIPOS>BOND
     1    41    42    1
     2    42    35    1
     3    35    36   ar
     4    36    37   ar
     5    37    38   ar
     6    38    39   ar
     7    39    40   ar
     8    40    31    1
     9    31    32    2
    10    31    33   am
    11    33    30    1
    12    30    29    1
    13    29    28    1
    14    28    27    1
    15     1    27    1
    16     1    18    1
    17    18    19   am
    18    19    20    2
    19    19    22    1
    20    22    23   ar
    21    23    24   ar
    22    24    25   ar
    23    25    26   ar
    24     1     2    1
    25     2     3   ar
    26     3     4   ar
    27     4     5   ar
    28     5     8    1
    29     8     9   ar
    30     9    10   ar
    31    10    11   ar
    32    11    12   ar
    33    12    13   ar
    34    13    14   ar
    35    14    15   ar
    36    15    16   ar
    37    16    17   ar
    38     5     6   ar
    39    40    35   ar
    40    26    22   ar
    41     6     2   ar
    42    17     8   ar
    43    16    11   ar
    44    33    34    1
    45    18    21    1
    46     6     7    1
@<TRIPOS>MOLECULE
*****
 42 46 0 0 0
SMALL
GASTEIGER

@<TRIPOS>ATOM
      1 C         139.9411  142.8953  161.1414 C.3     1  UNL1        0.1287
      2 C         140.8867  142.8709  162.3055 C.ar    1  UNL1        0.1351
      3 N         142.3249  143.2967  162.2822 N.ar    1  UNL1       -0.2279
      4 C         142.8872  143.1053  163.6597 C.ar    1  UNL1        0.1171
      5 C         141.7966  142.5612  164.5341 C.ar    1  UNL1        0.0769
      6 N         140.5603  142.4163  163.6972 N.ar    1  UNL1       -0.3394
      7 H         139.6877  142.0817  164.0069 H       1  UNL1        0.1671
      8 C         141.9206  142.2217  165.9899 C.ar    1  UNL1        0.0172
      9 C         143.2013  142.5018  166.7189 C.ar    1  UNL1        0.0015
     10 C         143.3254  142.1623  168.1746 C.ar    1  UNL1        0.0000
     11 C         142.1688  141.5426  168.9015 C.ar    1  UNL1        0.0000
     12 C         142.2929  141.2031  170.3573 C.ar    1  UNL1        0.0000
     13 C         141.1363  140.5834  171.0841 C.ar    1  UNL1        0.0000
     14 C         139.8556  140.3033  170.3551 C.ar    1  UNL1        0.0000
     15 C         139.7315  140.6428  168.8993 C.ar    1  UNL1        0.0000
     16 C         140.8881  141.2625  168.1726 C.ar    1  UNL1        0.0000
     17 C         140.7641  141.6020  166.7167 C.ar    1  UNL1        0.0015
     18 N         140.4194  143.3549  159.7960 N.am    1  UNL1       -0.2956
     19 C         140.3051  144.8006  159.4130 C.2     1  UNL1        0.2537
     20 O         139.7125  145.7868  160.3754 O.2     1  UNL1       -0.2695
     21 H         140.8083  142.7076  159.1644 H       1  UNL1        0.1501
     22 C         140.7833  145.2601  158.0676 C.ar    1  UNL1        0.1033
     23 C         140.0884  146.2438  157.1736 C.ar    1  UNL1        0.1105
     24 N         140.9161  146.4083  155.9334 N.ar    1  UNL1       -0.2346
     25 C         142.1226  145.5262  156.0610 C.ar    1  UNL1        0.1347
     26 S         142.0406  144.8166  157.3800 S.2     1  UNL1       -0.0599
     27 C         138.5171  142.4601  161.3226 C.3     1  UNL1        0.0274
     28 C         138.0733  141.1180  160.8208 C.3     1  UNL1        0.0039
     29 C         137.5053  140.1104  161.7759 C.3     1  UNL1        0.0213
     30 C         138.3790  139.0215  162.3246 C.3     1  UNL1        0.0897
     31 C         140.7276  138.3365  163.1990 C.2     1  UNL1        0.2463
     32 O         140.5311  136.9563  162.6456 O.2     1  UNL1       -0.2701
     33 N         139.6515  139.3692  163.0385 N.am    1  UNL1       -0.3009
     34 H         139.7805  140.2751  163.4017 H       1  UNL1        0.1497
     35 C         143.1295  139.3264  163.1631 C.ar    1  UNL1        0.0296
     36 C         144.4021  139.6741  163.8769 C.ar    1  UNL1        0.0063
     37 C         144.5455  139.3794  165.3407 C.ar    1  UNL1        0.0005
     38 C         143.4162  138.7372  166.0906 C.ar    1  UNL1        0.0002
     39 C         142.1436  138.3895  165.3767 C.ar    1  UNL1        0.0050
     40 C         142.0002  138.6842  163.9129 C.ar    1  UNL1        0.0590
     41 C         144.0475  139.1761  160.7372 C.3     1  UNL1        0.0742
     42 S         142.9861  139.6211  161.6992 S.3     1  UNL1       -0.1126
@<TRIPOS>BOND
     1    41    42    1
     2    42    35    1
     3    35    36   ar
     4    36    37   ar
     5    37    38   ar
     6    38    39   ar
     7    39    40   ar
     8    40    31    1
     9    31    32    2
    10    31    33   am
    11    33    30    1
    12    30    29    1
    13    29    28    1
    14    28    27    1
    15     1    27    1
    16     1    18    1
    17    18    19   am
    18    19    20    2
    19    19    22    1
    20    22    23   ar
    21    23    24   ar
    22    24    25   ar
    23    25    26   ar
    24     1     2    1
    25     2     3   ar
    26     3     4   ar
    27     4     5   ar
    28     5     8    1
    29     8     9   ar
    30     9    10   ar
    31    10    11   ar
    32    11    12   ar
    33    12    13   ar
    34    13    14   ar
    35    14    15   ar
    36    15    16   ar
    37    16    17   ar
    38     5     6   ar
    39    40    35   ar
    40    26    22   ar
    41     6     2   ar
    42    17     8   ar
    43    16    11   ar
    44    33    34    1
    45    18    21    1
    46     6     7    1
@<TRIPOS>MOLECULE
*****
 42 46 0 0 0
SMALL
GASTEIGER

@<TRIPOS>ATOM
      1 C         143.4097  142.2404  159.8612 C.3     1  UNL1        0.1287
      2 C         143.9168  141.8928  161.2293 C.ar    1  UNL1        0.1351
      3 N         145.3442  141.9641  161.6849 N.ar    1  UNL1       -0.2279
      4 C         145.3952  141.5281  163.1193 C.ar    1  UNL1        0.1171
      5 C         143.9994  141.1874  163.5501 C.ar    1  UNL1        0.0769
      6 N         143.0857  141.4128  162.3820 N.ar    1  UNL1       -0.3394
      7 H         142.1116  141.2706  162.3735 H       1  UNL1        0.1671
      8 C         143.5893  140.7058  164.9102 C.ar    1  UNL1        0.0172
      9 C         143.6352  139.2417  165.2328 C.ar    1  UNL1        0.0015
     10 C         143.2251  138.7601  166.5929 C.ar    1  UNL1        0.0000
     11 C         142.7691  139.7427  167.6305 C.ar    1  UNL1        0.0000
     12 C         142.3590  139.2611  168.9906 C.ar    1  UNL1        0.0000
     13 C         141.9030  140.2437  170.0281 C.ar    1  UNL1        0.0000
     14 C         141.8570  141.7079  169.7055 C.ar    1  UNL1        0.0000
     15 C         142.2671  142.1895  168.3454 C.ar    1  UNL1        0.0000
     16 C         142.7231  141.2069  167.3079 C.ar    1  UNL1        0.0000
     17 C         143.1332  141.6884  165.9478 C.ar    1  UNL1        0.0015
     18 N         144.3782  142.4929  158.7439 N.am    1  UNL1       -0.2956
     19 C         144.8301  141.3589  157.8724 C.2     1  UNL1        0.2537
     20 O         144.3136  139.9722  158.1181 O.2     1  UNL1       -0.2695
     21 H         144.7172  143.4030  158.5826 H       1  UNL1        0.1501
     22 C         145.7986  141.6114  156.7552 C.ar    1  UNL1        0.1033
     23 C         146.9749  142.5410  156.8014 C.ar    1  UNL1        0.1105
     24 N         147.6642  142.4828  155.4703 N.ar    1  UNL1       -0.2346
     25 C         146.9138  141.5173  154.6015 C.ar    1  UNL1        0.1347
     26 S         145.7608  140.9787  155.3956 S.2     1  UNL1       -0.0599
     27 C         141.9339  142.3357  159.6102 C.3     1  UNL1        0.0274
     28 C         141.2747  143.6796  159.5131 C.3     1  UNL1        0.0039
     29 C         141.4367  144.6764  160.6222 C.3     1  UNL1        0.0213
     30 C         140.5181  144.6358  161.8073 C.3     1  UNL1        0.0897
     31 C         139.4226  142.5788  162.9555 C.2     1  UNL1        0.2463
     32 O         138.1699  142.8027  162.1614 O.2     1  UNL1       -0.2701
     33 N         140.5967  143.4954  162.7784 N.am    1  UNL1       -0.3009
     34 H         141.4190  143.3485  163.2995 H       1  UNL1        0.1497
     35 C         139.7422  140.0442  163.4284 C.ar    1  UNL1        0.0296
     36 C         139.8208  138.9037  164.3996 C.ar    1  UNL1        0.0063
     37 C         139.6585  139.1574  165.8690 C.ar    1  UNL1        0.0005
     38 C         139.4175  140.5515  166.3673 C.ar    1  UNL1        0.0002
     39 C         139.3389  141.6920  165.3961 C.ar    1  UNL1        0.0050
     40 C         139.5012  141.4383  163.9266 C.ar    1  UNL1        0.0590
     41 C         138.8806  138.9810  161.2199 C.3     1  UNL1        0.0742
     42 S         139.9046  139.7905  161.9589 S.3     1  UNL1       -0.1126
@<TRIPOS>BOND
     1    41    42    1
     2    42    35    1
     3    35    36   ar
     4    36    37   ar
     5    37    38   ar
     6    38    39   ar
     7    39    40   ar
     8    40    31    1
     9    31    32    2
    10    31    33   am
    11    33    30    1
    12    30    29    1
    13    29    28    1
    14    28    27    1
    15     1    27    1
    16     1    18    1
    17    18    19   am
    18    19    20    2
    19    19    22    1
    20    22    23   ar
    21    23    24   ar
    22    24    25   ar
    23    25    26   ar
    24     1     2    1
    25     2     3   ar
    26     3     4   ar
    27     4     5   ar
    28     5     8    1
    29     8     9   ar
    30     9    10   ar
    31    10    11   ar
    32    11    12   ar
    33    12    13   ar
    34    13    14   ar
    35    14    15   ar
    36    15    16   ar
    37    16    17   ar
    38     5     6   ar
    39    40    35   ar
    40    26    22   ar
    41     6     2   ar
    42    17     8   ar
    43    16    11   ar
    44    33    34    1
    45    18    21    1
    46     6     7    1
