@<TRIPOS>MOLECULE
*****
 29 32 0 0 0
SMALL
GASTEIGER

@<TRIPOS>ATOM
      1 C         144.2400  141.7973  164.6928 C.2     1  UNL1        0.1571
      2 N         145.6404  142.1163  164.2602 N.2     1  UNL1       -0.1436
      3 N         145.8169  141.6175  162.8566 N.2     1  UNL1       -0.1519
      4 C         144.5256  140.9903  162.4217 C.2     1  UNL1        0.0865
      5 C         144.1113  140.3324  161.1390 C.3     1  UNL1        0.0736
      6 C         142.7224  139.7856  160.9911 C.2     1  UNL1       -0.0196
      7 C         141.7478  139.8967  162.1259 C.2     1  UNL1       -0.0016
      8 C         142.1621  140.5546  163.4086 C.2     1  UNL1        0.0027
      9 C         143.5510  141.1014  163.5565 C.2     1  UNL1        0.0395
     10 C         140.3588  139.3498  161.9780 C.ar    1  UNL1        0.0294
     11 C         139.9002  138.2209  162.8527 C.ar    1  UNL1        0.0024
     12 C         138.5112  137.6740  162.7047 C.ar    1  UNL1        0.0025
     13 C         137.5810  138.2561  161.6821 C.ar    1  UNL1        0.0320
     14 C         138.0397  139.3851  160.8073 C.ar    1  UNL1        0.1674
     15 F         137.1095  139.9672  159.7847 F       1  UNL1       -0.2018
     16 C         139.4286  139.9319  160.9553 C.ar    1  UNL1        0.1673
     17 F         139.8874  141.0609  160.0806 F       1  UNL1       -0.2018
     18 O         144.1292  143.2973  166.8112 O.2     1  UNL1       -0.2684
     19 C         143.6348  142.1179  166.0273 C.2     1  UNL1        0.2654
     20 N         142.5352  141.2590  166.5780 N.am    1  UNL1       -0.3011
     21 H         142.2107  140.4848  166.0635 H       1  UNL1        0.1497
     22 C         141.9300  141.5796  167.9126 C.3     1  UNL1        0.0754
     23 C         140.8030  142.5648  168.0078 C.3     1  UNL1        0.0449
     24 C         140.1979  142.8854  169.3423 C.3     1  UNL1        0.1525
     25 S         140.7197  142.2207  170.5816 S.O2    1  UNL1       -0.0099
     26 O         140.8680  141.8539  172.0285 O.2     1  UNL1       -0.1730
     27 O         139.6442  143.0786  171.1793 O.2     1  UNL1       -0.1730
     28 C         141.8467  141.2354  170.4863 C.3     1  UNL1        0.1525
     29 C         142.4519  140.9148  169.1518 C.3     1  UNL1        0.0449
@<TRIPOS>BOND
     1    18    19    2
     2    19    20   am
     3    20    22    1
     4    22    23    1
     5    23    24    1
     6    24    25    1
     7    25    26    2
     8    25    27    2
     9    25    28    1
    10    28    29    1
    11    19     1    1
    12     1     2    2
    13     2     3    1
    14     3     4    2
    15     4     5    1
    16     5     6    1
    17     6     7    2
    18     7    10    1
    19    10    11   ar
    20    11    12   ar
    21    12    13   ar
    22    13    14   ar
    23    14    15    1
    24    14    16   ar
    25    16    17    1
    26     7     8    1
    27     8     9    2
    28    29    22    1
    29     9     1    1
    30     9     4    1
    31    16    10   ar
    32    20    21    1
@<TRIPOS>MOLECULE
*****
 29 32 0 0 0
SMALL
GASTEIGER

@<TRIPOS>ATOM
      1 C         141.2939  138.5035  164.7074 C.2     1  UNL1        0.1571
      2 N         141.2194  137.0264  164.4575 N.2     1  UNL1       -0.1436
      3 N         140.9484  136.8164  162.9972 N.2     1  UNL1       -0.1519
      4 C         140.8553  138.1638  162.3446 C.2     1  UNL1        0.0865
      5 C         140.6038  138.5759  160.9245 C.3     1  UNL1        0.0736
      6 C         140.5657  140.0308  160.5613 C.2     1  UNL1       -0.0196
      7 C         140.7793  141.0735  161.6183 C.2     1  UNL1       -0.0016
      8 C         141.0309  140.6614  163.0384 C.2     1  UNL1        0.0027
      9 C         141.0689  139.2065  163.4016 C.2     1  UNL1        0.0395
     10 C         140.7413  142.5284  161.2550 C.ar    1  UNL1        0.0294
     11 C         141.6519  143.0590  160.1877 C.ar    1  UNL1        0.0024
     12 C         141.6139  144.5139  159.8245 C.ar    1  UNL1        0.0025
     13 C         140.6652  145.4382  160.5286 C.ar    1  UNL1        0.0320
     14 C         139.7546  144.9075  161.5960 C.ar    1  UNL1        0.1674
     15 F         138.8059  145.8317  162.3001 F       1  UNL1       -0.2018
     16 C         139.7926  143.4526  161.9592 C.ar    1  UNL1        0.1673
     17 F         138.8820  142.9220  163.0265 F       1  UNL1       -0.2018
     18 O         142.7954  138.8414  166.8005 O.2     1  UNL1       -0.2684
     19 C         141.5487  139.1621  166.0308 C.2     1  UNL1        0.2654
     20 N         140.5566  140.1416  166.5845 N.am    1  UNL1       -0.3011
     21 H         139.7383  140.3522  166.0793 H       1  UNL1        0.1497
     22 C         140.8114  140.8002  167.9078 C.3     1  UNL1        0.0754
     23 C         141.8794  141.8462  168.0318 C.3     1  UNL1        0.0449
     24 C         142.1342  142.5048  169.3552 C.3     1  UNL1        0.1525
     25 S         141.3209  142.1174  170.5545 S.O2    1  UNL1       -0.0099
     26 O         140.8179  142.0900  171.9675 O.2     1  UNL1       -0.1730
     27 O         142.2142  143.1538  171.1692 O.2     1  UNL1       -0.1730
     28 C         140.2529  141.0714  170.4306 C.3     1  UNL1        0.1525
     29 C         139.9981  140.4128  169.1072 C.3     1  UNL1        0.0449
@<TRIPOS>BOND
     1    18    19    2
     2    19    20   am
     3    20    22    1
     4    22    23    1
     5    23    24    1
     6    24    25    1
     7    25    26    2
     8    25    27    2
     9    25    28    1
    10    28    29    1
    11    19     1    1
    12     1     2    2
    13     2     3    1
    14     3     4    2
    15     4     5    1
    16     5     6    1
    17     6     7    2
    18     7    10    1
    19    10    11   ar
    20    11    12   ar
    21    12    13   ar
    22    13    14   ar
    23    14    15    1
    24    14    16   ar
    25    16    17    1
    26     7     8    1
    27     8     9    2
    28    29    22    1
    29     9     1    1
    30     9     4    1
    31    16    10   ar
    32    20    21    1
@<TRIPOS>MOLECULE
*****
 29 32 0 0 0
SMALL
GASTEIGER

@<TRIPOS>ATOM
      1 C         143.0083  143.9505  162.3658 C.2     1  UNL1        0.1571
      2 N         143.9969  144.9575  162.8744 N.2     1  UNL1       -0.1436
      3 N         144.2748  144.6473  164.3154 N.2     1  UNL1       -0.1519
      4 C         143.4579  143.4486  164.6974 C.2     1  UNL1        0.0865
      5 C         143.3257  142.6936  165.9868 C.3     1  UNL1        0.0736
      6 C         142.4108  141.5080  166.0712 C.2     1  UNL1       -0.0196
      7 C         141.6281  141.0774  164.8662 C.2     1  UNL1       -0.0016
      8 C         141.7603  141.8323  163.5769 C.2     1  UNL1        0.0027
      9 C         142.6752  143.0180  163.4925 C.2     1  UNL1        0.0395
     10 C         140.7131  139.8917  164.9507 C.ar    1  UNL1        0.0294
     11 C         141.0101  138.6568  164.1528 C.ar    1  UNL1        0.0024
     12 C         140.0952  137.4711  164.2372 C.ar    1  UNL1        0.0025
     13 C         138.8832  137.5204  165.1196 C.ar    1  UNL1        0.0320
     14 C         138.5862  138.7554  165.9176 C.ar    1  UNL1        0.1674
     15 F         137.3742  138.8047  166.8000 F       1  UNL1       -0.2018
     16 C         139.5011  139.9410  165.8331 C.ar    1  UNL1        0.1673
     17 F         139.2041  141.1760  166.6310 F       1  UNL1       -0.2018
     18 O         142.5471  142.6155  160.1852 O.2     1  UNL1       -0.2684
     19 C         142.4507  143.8872  160.9747 C.2     1  UNL1        0.2654
     20 N         141.7966  145.0957  160.3732 N.am    1  UNL1       -0.3011
     21 H         141.7333  145.9304  160.8913 H       1  UNL1        0.1497
     22 C         141.2390  145.0323  158.9821 C.3     1  UNL1        0.0754
     23 C         141.8933  145.8057  157.8759 C.3     1  UNL1        0.0449
     24 C         141.3356  145.7424  156.4848 C.3     1  UNL1        0.1525
     25 S         140.1238  144.9057  156.2001 S.O2    1  UNL1       -0.0099
     26 O         139.0040  144.2596  155.4393 O.2     1  UNL1       -0.1730
     27 O         140.3891  145.4547  154.8296 O.2     1  UNL1       -0.1730
     28 C         139.4695  144.1323  157.3063 C.3     1  UNL1        0.1525
     29 C         140.0271  144.1956  158.6974 C.3     1  UNL1        0.0449
@<TRIPOS>BOND
     1    18    19    2
     2    19    20   am
     3    20    22    1
     4    22    23    1
     5    23    24    1
     6    24    25    1
     7    25    26    2
     8    25    27    2
     9    25    28    1
    10    28    29    1
    11    19     1    1
    12     1     2    2
    13     2     3    1
    14     3     4    2
    15     4     5    1
    16     5     6    1
    17     6     7    2
    18     7    10    1
    19    10    11   ar
    20    11    12   ar
    21    12    13   ar
    22    13    14   ar
    23    14    15    1
    24    14    16   ar
    25    16    17    1
    26     7     8    1
    27     8     9    2
    28    29    22    1
    29     9     1    1
    30     9     4    1
    31    16    10   ar
    32    20    21    1
@<TRIPOS>MOLECULE
*****
 29 32 0 0 0
SMALL
GASTEIGER

@<TRIPOS>ATOM
      1 C         140.5282  144.4327  160.9261 C.2     1  UNL1        0.1571
      2 N         140.0521  145.8434  160.7439 N.2     1  UNL1       -0.1436
      3 N         138.9454  146.0896  161.7260 N.2     1  UNL1       -0.1519
      4 C         138.7374  144.8310  162.5152 C.2     1  UNL1        0.0865
      5 C         137.7837  144.4852  163.6201 C.3     1  UNL1        0.0736
      6 C         137.8083  143.1153  164.2306 C.2     1  UNL1       -0.0196
      7 C         138.7865  142.0913  163.7363 C.2     1  UNL1       -0.0016
      8 C         139.7402  142.4371  162.6314 C.2     1  UNL1        0.0027
      9 C         139.7157  143.8070  162.0209 C.2     1  UNL1        0.0395
     10 C         138.8110  140.7213  164.3468 C.ar    1  UNL1        0.0294
     11 C         138.9796  140.5637  165.8289 C.ar    1  UNL1        0.0024
     12 C         139.0041  139.1937  166.4395 C.ar    1  UNL1        0.0025
     13 C         138.8599  137.9815  165.5679 C.ar    1  UNL1        0.0320
     14 C         138.6913  138.1392  164.0858 C.ar    1  UNL1        0.1674
     15 F         138.5471  136.9270  163.2142 F       1  UNL1       -0.2018
     16 C         138.6668  139.5091  163.4752 C.ar    1  UNL1        0.1673
     17 F         138.4981  139.6668  161.9931 F       1  UNL1       -0.2018
     18 O         143.0484  143.8902  160.6037 O.2     1  UNL1       -0.2684
     19 C         141.6243  143.7648  160.1499 C.2     1  UNL1        0.2654
     20 N         141.2962  142.9714  158.9198 N.am    1  UNL1       -0.3011
     21 H         140.3614  142.8890  158.6220 H       1  UNL1        0.1497
     22 C         142.3923  142.3036  158.1436 C.3     1  UNL1        0.0754
     23 C         143.2387  143.1052  157.1997 C.3     1  UNL1        0.0449
     24 C         144.3348  142.4373  156.4235 C.3     1  UNL1        0.1525
     25 S         144.5845  140.9679  156.5913 S.O2    1  UNL1       -0.0099
     26 O         145.2028  139.6133  156.4092 O.2     1  UNL1       -0.1730
     27 O         145.6456  141.2991  155.5841 O.2     1  UNL1       -0.1730
     28 C         143.7381  140.1662  157.5352 C.3     1  UNL1        0.1525
     29 C         142.6420  140.8341  158.3114 C.3     1  UNL1        0.0449
@<TRIPOS>BOND
     1    18    19    2
     2    19    20   am
     3    20    22    1
     4    22    23    1
     5    23    24    1
     6    24    25    1
     7    25    26    2
     8    25    27    2
     9    25    28    1
    10    28    29    1
    11    19     1    1
    12     1     2    2
    13     2     3    1
    14     3     4    2
    15     4     5    1
    16     5     6    1
    17     6     7    2
    18     7    10    1
    19    10    11   ar
    20    11    12   ar
    21    12    13   ar
    22    13    14   ar
    23    14    15    1
    24    14    16   ar
    25    16    17    1
    26     7     8    1
    27     8     9    2
    28    29    22    1
    29     9     1    1
    30     9     4    1
    31    16    10   ar
    32    20    21    1
@<TRIPOS>MOLECULE
*****
 29 32 0 0 0
SMALL
GASTEIGER

@<TRIPOS>ATOM
      1 C         138.9107  142.4701  162.1641 C.2     1  UNL1        0.1571
      2 N         137.9474  143.4815  161.6173 N.2     1  UNL1       -0.1436
      3 N         137.6540  144.4756  162.7016 N.2     1  UNL1       -0.1519
      4 C         138.4360  144.0787  163.9185 C.2     1  UNL1        0.0865
      5 C         138.5411  144.6857  165.2861 C.3     1  UNL1        0.0736
      6 C         139.4230  144.0532  166.3216 C.2     1  UNL1       -0.0196
      7 C         140.1997  142.8137  165.9894 C.2     1  UNL1       -0.0016
      8 C         140.0946  142.2067  164.6218 C.2     1  UNL1        0.0027
      9 C         139.2127  142.8391  163.5863 C.2     1  UNL1        0.0395
     10 C         141.0816  142.1812  167.0250 C.ar    1  UNL1        0.0294
     11 C         142.4797  142.6852  167.2285 C.ar    1  UNL1        0.0024
     12 C         143.3616  142.0527  168.2641 C.ar    1  UNL1        0.0025
     13 C         142.8454  140.9163  169.0960 C.ar    1  UNL1        0.0320
     14 C         141.4472  140.4124  168.8924 C.ar    1  UNL1        0.1674
     15 F         140.9310  139.2759  169.7243 F       1  UNL1       -0.2018
     16 C         140.5654  141.0448  167.8569 C.ar    1  UNL1        0.1673
     17 F         139.1673  140.5409  167.6533 F       1  UNL1       -0.2018
     18 O         139.3295  139.9126  161.9814 O.2     1  UNL1       -0.2684
     19 C         139.4734  141.2958  161.4195 C.2     1  UNL1        0.2654
     20 N         140.1799  141.5048  160.1129 N.am    1  UNL1       -0.3011
     21 H         140.2744  142.4127  159.7441 H       1  UNL1        0.1497
     22 C         140.7426  140.3305  159.3683 C.3     1  UNL1        0.0754
     23 C         139.8646  139.5353  158.4481 C.3     1  UNL1        0.0449
     24 C         140.4272  138.3610  157.7035 C.3     1  UNL1        0.1525
     25 S         141.8678  137.9820  157.8791 S.O2    1  UNL1       -0.0099
     26 O         143.1594  137.2369  157.7153 O.2     1  UNL1       -0.1730
     27 O         141.4384  136.9279  156.9020 O.2     1  UNL1       -0.1730
     28 C         142.7458  138.7772  158.7992 C.3     1  UNL1        0.1525
     29 C         142.1832  139.9515  159.5438 C.3     1  UNL1        0.0449
@<TRIPOS>BOND
     1    18    19    2
     2    19    20   am
     3    20    22    1
     4    22    23    1
     5    23    24    1
     6    24    25    1
     7    25    26    2
     8    25    27    2
     9    25    28    1
    10    28    29    1
    11    19     1    1
    12     1     2    2
    13     2     3    1
    14     3     4    2
    15     4     5    1
    16     5     6    1
    17     6     7    2
    18     7    10    1
    19    10    11   ar
    20    11    12   ar
    21    12    13   ar
    22    13    14   ar
    23    14    15    1
    24    14    16   ar
    25    16    17    1
    26     7     8    1
    27     8     9    2
    28    29    22    1
    29     9     1    1
    30     9     4    1
    31    16    10   ar
    32    20    21    1
@<TRIPOS>MOLECULE
*****
 29 32 0 0 0
SMALL
GASTEIGER

@<TRIPOS>ATOM
      1 C         142.4304  144.2242  162.7434 C.2     1  UNL1        0.1571
      2 N         143.6491  145.0431  163.0504 N.2     1  UNL1       -0.1436
      3 N         144.2092  144.5682  164.3583 N.2     1  UNL1       -0.1519
      4 C         143.3368  143.4558  164.8597 C.2     1  UNL1        0.0865
      5 C         143.4014  142.6090  166.0961 C.3     1  UNL1        0.0736
      6 C         142.3666  141.5496  166.3344 C.2     1  UNL1       -0.0196
      7 C         141.2673  141.3369  165.3363 C.2     1  UNL1       -0.0016
      8 C         141.2027  142.1837  164.0999 C.2     1  UNL1        0.0027
      9 C         142.2374  143.2431  163.8616 C.2     1  UNL1        0.0395
     10 C         140.2325  140.2774  165.5746 C.ar    1  UNL1        0.0294
     11 C         139.4553  140.2633  166.8575 C.ar    1  UNL1        0.0024
     12 C         138.4205  139.2037  167.0958 C.ar    1  UNL1        0.0025
     13 C         138.1630  138.1584  166.0513 C.ar    1  UNL1        0.0320
     14 C         138.9403  138.1726  164.7684 C.ar    1  UNL1        0.1674
     15 F         138.6828  137.1273  163.7239 F       1  UNL1       -0.2018
     16 C         139.9750  139.2321  164.5301 C.ar    1  UNL1        0.1673
     17 F         140.7523  139.2463  163.2473 F       1  UNL1       -0.2018
     18 O         140.0772  144.5418  161.6891 O.2     1  UNL1       -0.2684
     19 C         141.5579  144.3620  161.5311 C.2     1  UNL1        0.2654
     20 N         142.1663  144.3201  160.1605 N.am    1  UNL1       -0.3011
     21 H         143.1381  144.2021  160.0567 H       1  UNL1        0.1497
     22 C         141.2938  144.4579  158.9481 C.3     1  UNL1        0.0754
     23 C         140.5171  143.2775  158.4449 C.3     1  UNL1        0.0449
     24 C         139.6446  143.4153  157.2326 C.3     1  UNL1        0.1525
     25 S         139.5489  144.7336  156.5235 S.O2    1  UNL1       -0.0099
     26 O         139.1332  145.7666  155.5184 O.2     1  UNL1       -0.1730
     27 O         138.6278  143.9119  155.6712 O.2     1  UNL1       -0.1730
     28 C         140.3256  145.9141  157.0267 C.3     1  UNL1        0.1525
     29 C         141.1981  145.7762  158.2391 C.3     1  UNL1        0.0449
@<TRIPOS>BOND
     1    18    19    2
     2    19    20   am
     3    20    22    1
     4    22    23    1
     5    23    24    1
     6    24    25    1
     7    25    26    2
     8    25    27    2
     9    25    28    1
    10    28    29    1
    11    19     1    1
    12     1     2    2
    13     2     3    1
    14     3     4    2
    15     4     5    1
    16     5     6    1
    17     6     7    2
    18     7    10    1
    19    10    11   ar
    20    11    12   ar
    21    12    13   ar
    22    13    14   ar
    23    14    15    1
    24    14    16   ar
    25    16    17    1
    26     7     8    1
    27     8     9    2
    28    29    22    1
    29     9     1    1
    30     9     4    1
    31    16    10   ar
    32    20    21    1
@<TRIPOS>MOLECULE
*****
 29 32 0 0 0
SMALL
GASTEIGER

@<TRIPOS>ATOM
      1 C         143.3237  140.1789  164.9505 C.2     1  UNL1        0.1571
      2 N         144.3533  139.1081  164.7422 N.2     1  UNL1       -0.1436
      3 N         144.8593  139.2192  163.3345 N.2     1  UNL1       -0.1519
      4 C         144.1424  140.3586  162.6728 C.2     1  UNL1        0.0865
      5 C         144.2312  140.9326  161.2899 C.3     1  UNL1        0.0736
      6 C         143.3710  142.0998  160.9057 C.2     1  UNL1       -0.0196
      7 C         142.4220  142.6930  161.9045 C.2     1  UNL1       -0.0016
      8 C         142.3332  142.1189  163.2874 C.2     1  UNL1        0.0027
      9 C         143.1934  140.9517  163.6715 C.2     1  UNL1        0.0395
     10 C         141.5617  143.8602  161.5202 C.ar    1  UNL1        0.0294
     11 C         141.0721  144.8098  162.5731 C.ar    1  UNL1        0.0024
     12 C         140.2118  145.9770  162.1888 C.ar    1  UNL1        0.0025
     13 C         139.8412  146.1946  160.7517 C.ar    1  UNL1        0.0320
     14 C         140.3309  145.2450  159.6988 C.ar    1  UNL1        0.1674
     15 F         139.9603  145.4626  158.2617 F       1  UNL1       -0.2018
     16 C         141.1911  144.0778  160.0831 C.ar    1  UNL1        0.1673
     17 F         141.6808  143.1282  159.0302 F       1  UNL1       -0.2018
     18 O         141.5253  139.4481  166.6772 O.2     1  UNL1       -0.2684
     19 C         142.5588  140.4323  166.2156 C.2     1  UNL1        0.2654
     20 N         142.8273  141.6702  167.0193 N.am    1  UNL1       -0.3011
     21 H         143.5057  142.3162  166.7164 H       1  UNL1        0.1497
     22 C         142.0623  141.9236  168.2845 C.3     1  UNL1        0.0754
     23 C         142.4780  141.2519  169.5596 C.3     1  UNL1        0.0449
     24 C         141.7131  141.5054  170.8247 C.3     1  UNL1        0.1525
     25 S         140.5324  142.4306  170.8146 S.O2    1  UNL1       -0.0099
     26 O         139.3540  143.2174  171.3068 O.2     1  UNL1       -0.1730
     27 O         140.5388  142.0321  172.2608 O.2     1  UNL1       -0.1730
     28 C         140.1167  143.1022  169.5395 C.3     1  UNL1        0.1525
     29 C         140.8817  142.8488  168.2744 C.3     1  UNL1        0.0449
@<TRIPOS>BOND
     1    18    19    2
     2    19    20   am
     3    20    22    1
     4    22    23    1
     5    23    24    1
     6    24    25    1
     7    25    26    2
     8    25    27    2
     9    25    28    1
    10    28    29    1
    11    19     1    1
    12     1     2    2
    13     2     3    1
    14     3     4    2
    15     4     5    1
    16     5     6    1
    17     6     7    2
    18     7    10    1
    19    10    11   ar
    20    11    12   ar
    21    12    13   ar
    22    13    14   ar
    23    14    15    1
    24    14    16   ar
    25    16    17    1
    26     7     8    1
    27     8     9    2
    28    29    22    1
    29     9     1    1
    30     9     4    1
    31    16    10   ar
    32    20    21    1
@<TRIPOS>MOLECULE
*****
 29 32 0 0 0
SMALL
GASTEIGER

@<TRIPOS>ATOM
      1 C         139.7088  138.9561  164.7238 C.2     1  UNL1        0.1571
      2 N         139.0688  137.6025  164.6326 N.2     1  UNL1       -0.1436
      3 N         138.5837  137.4131  163.2259 N.2     1  UNL1       -0.1519
      4 C         138.9239  138.6495  162.4477 C.2     1  UNL1        0.0865
      5 C         138.6903  139.0301  161.0158 C.3     1  UNL1        0.0736
      6 C         139.1520  140.3645  160.5096 C.2     1  UNL1       -0.0196
      7 C         139.8474  141.3181  161.4353 C.2     1  UNL1       -0.0016
      8 C         140.0810  140.9375  162.8673 C.2     1  UNL1        0.0027
      9 C         139.6192  139.6031  163.3734 C.2     1  UNL1        0.0395
     10 C         140.3092  142.6525  160.9291 C.ar    1  UNL1        0.0294
     11 C         139.6485  143.9085  161.4147 C.ar    1  UNL1        0.0024
     12 C         140.1102  145.2429  160.9085 C.ar    1  UNL1        0.0025
     13 C         141.2327  145.3213  159.9166 C.ar    1  UNL1        0.0320
     14 C         141.8934  144.0652  159.4309 C.ar    1  UNL1        0.1674
     15 F         143.0159  144.1435  158.4390 F       1  UNL1       -0.2018
     16 C         141.4317  142.7309  159.9372 C.ar    1  UNL1        0.1673
     17 F         142.0924  141.4748  159.4515 F       1  UNL1       -0.2018
     18 O         141.7406  139.2115  166.3227 O.2     1  UNL1       -0.2684
     19 C         140.3294  139.5571  165.9500 C.2     1  UNL1        0.2654
     20 N         139.5387  140.5039  166.8036 N.am    1  UNL1       -0.3011
     21 H         138.6124  140.7308  166.5590 H       1  UNL1        0.1497
     22 C         140.1593  141.1049  168.0298 C.3     1  UNL1        0.0754
     23 C         141.1035  142.2634  167.9016 C.3     1  UNL1        0.0449
     24 C         141.7241  142.8644  169.1278 C.3     1  UNL1        0.1525
     25 S         141.4005  142.3069  170.4822 S.O2    1  UNL1       -0.0099
     26 O         141.4054  142.1305  171.9718 O.2     1  UNL1       -0.1730
     27 O         142.3464  143.4041  170.8713 O.2     1  UNL1       -0.1730
     28 C         140.4563  141.1485  170.6104 C.3     1  UNL1        0.1525
     29 C         139.8357  140.5475  169.3842 C.3     1  UNL1        0.0449
@<TRIPOS>BOND
     1    18    19    2
     2    19    20   am
     3    20    22    1
     4    22    23    1
     5    23    24    1
     6    24    25    1
     7    25    26    2
     8    25    27    2
     9    25    28    1
    10    28    29    1
    11    19     1    1
    12     1     2    2
    13     2     3    1
    14     3     4    2
    15     4     5    1
    16     5     6    1
    17     6     7    2
    18     7    10    1
    19    10    11   ar
    20    11    12   ar
    21    12    13   ar
    22    13    14   ar
    23    14    15    1
    24    14    16   ar
    25    16    17    1
    26     7     8    1
    27     8     9    2
    28    29    22    1
    29     9     1    1
    30     9     4    1
    31    16    10   ar
    32    20    21    1
@<TRIPOS>MOLECULE
*****
 29 32 0 0 0
SMALL
GASTEIGER

@<TRIPOS>ATOM
      1 C         140.3840  138.7745  162.9357 C.2     1  UNL1        0.1571
      2 N         139.3795  137.7748  162.4444 N.2     1  UNL1       -0.1436
      3 N         138.4287  137.4830  163.5673 N.2     1  UNL1       -0.1519
      4 C         138.8457  138.3024  164.7526 C.2     1  UNL1        0.0865
      5 C         138.2811  138.4248  166.1368 C.3     1  UNL1        0.0736
      6 C         138.9250  139.3454  167.1307 C.2     1  UNL1       -0.0196
      7 C         140.1335  140.1437  166.7403 C.2     1  UNL1       -0.0016
      8 C         140.6980  140.0213  165.3560 C.2     1  UNL1        0.0027
      9 C         140.0542  139.1006  164.3622 C.2     1  UNL1        0.0395
     10 C         140.7774  141.0643  167.7342 C.ar    1  UNL1        0.0294
     11 C         140.1470  142.3889  168.0476 C.ar    1  UNL1        0.0024
     12 C         140.7909  143.3095  169.0415 C.ar    1  UNL1        0.0025
     13 C         142.0651  142.9056  169.7220 C.ar    1  UNL1        0.0320
     14 C         142.6955  141.5810  169.4086 C.ar    1  UNL1        0.1674
     15 F         143.9698  141.1771  170.0891 F       1  UNL1       -0.2018
     16 C         142.0516  140.6604  168.4147 C.ar    1  UNL1        0.1673
     17 F         142.6820  139.3358  168.1013 F       1  UNL1       -0.2018
     18 O         142.9221  139.2579  162.6631 O.2     1  UNL1       -0.2684
     19 C         141.5192  139.3476  162.1401 C.2     1  UNL1        0.2654
     20 N         141.2514  140.0105  160.8214 N.am    1  UNL1       -0.3011
     21 H         140.3306  140.0695  160.4780 H       1  UNL1        0.1497
     22 C         142.3866  140.5836  160.0258 C.3     1  UNL1        0.0754
     23 C         142.8933  139.8601  158.8135 C.3     1  UNL1        0.0449
     24 C         144.0285  140.4331  158.0179 C.3     1  UNL1        0.1525
     25 S         144.6569  141.7298  158.4347 S.O2    1  UNL1       -0.0099
     26 O         145.5717  142.9186  158.4298 O.2     1  UNL1       -0.1730
     27 O         145.4814  141.4191  157.2207 O.2     1  UNL1       -0.1730
     28 C         144.1502  142.4534  159.6470 C.3     1  UNL1        0.1525
     29 C         143.0150  141.8803  160.4426 C.3     1  UNL1        0.0449
@<TRIPOS>BOND
     1    18    19    2
     2    19    20   am
     3    20    22    1
     4    22    23    1
     5    23    24    1
     6    24    25    1
     7    25    26    2
     8    25    27    2
     9    25    28    1
    10    28    29    1
    11    19     1    1
    12     1     2    2
    13     2     3    1
    14     3     4    2
    15     4     5    1
    16     5     6    1
    17     6     7    2
    18     7    10    1
    19    10    11   ar
    20    11    12   ar
    21    12    13   ar
    22    13    14   ar
    23    14    15    1
    24    14    16   ar
    25    16    17    1
    26     7     8    1
    27     8     9    2
    28    29    22    1
    29     9     1    1
    30     9     4    1
    31    16    10   ar
    32    20    21    1
