@<TRIPOS>MOLECULE
*****
 34 37 0 0 0
SMALL
GASTEIGER

@<TRIPOS>ATOM
      1 C         142.4589  140.0405  158.8521 C.3     1  UNL1        0.1171
      2 C         145.9981  142.0177  156.8990 C.ar    1  UNL1        0.1387
      3 C         145.3879  140.7940  156.2825 C.ar    1  UNL1        0.0366
      4 C         144.2082  140.1349  156.9335 C.ar    1  UNL1        0.0008
      5 C         143.6387  140.6995  158.2011 C.ar    1  UNL1       -0.0001
      6 C         144.2489  141.9232  158.8176 C.ar    1  UNL1        0.0008
      7 C         145.4286  142.5823  158.1666 C.ar    1  UNL1        0.0366
      8 C         148.1489  141.8577  155.4504 C.3     1  UNL1        0.2525
      9 O         147.1779  142.6768  156.2480 O.3     1  UNL1       -0.4714
     10 C         141.4691  139.2819  158.0186 C.ar    1  UNL1       -0.0001
     11 C         141.7417  137.8554  157.6433 C.ar    1  UNL1        0.0008
     12 C         140.7519  137.0969  156.8098 C.ar    1  UNL1        0.0366
     13 C         139.4894  137.7648  156.3515 C.ar    1  UNL1        0.1387
     14 C         139.2168  139.1912  156.7267 C.ar    1  UNL1        0.0366
     15 C         140.2066  139.9499  157.5603 C.ar    1  UNL1        0.0008
     16 O         138.4996  137.0061  155.5179 O.3     1  UNL1       -0.4714
     17 C         137.7690  137.6984  154.4058 C.3     1  UNL1        0.2525
     18 N         142.2690  140.1399  160.3367 N.am    1  UNL1       -0.2949
     19 C         142.8007  139.0625  161.2347 C.2     1  UNL1        0.2523
     20 O         143.5222  137.8856  160.6481 O.2     1  UNL1       -0.2699
     21 H         141.7954  140.9124  160.7217 H       1  UNL1        0.1503
     22 C         142.6107  139.1620  162.7193 C.ar    1  UNL1        0.1254
     23 C         143.0990  140.3725  163.4584 C.ar    1  UNL1        0.1113
     24 N         142.9091  140.4721  164.9430 N.ar    1  UNL1       -0.2081
     25 C         142.2309  139.3611  165.6885 C.ar    1  UNL1        0.2556
     26 N         141.7426  138.1506  164.9495 N.ar    1  UNL1       -0.1750
     27 C         141.9325  138.0510  163.4648 C.ar    1  UNL1        0.2301
     28 O         141.4443  136.8405  162.7257 O.3     1  UNL1       -0.4918
     29 H         141.0206  136.1465  163.1914 H       1  UNL1        0.2938
     30 N         142.0410  139.4606  167.1731 N.ar    1  UNL1       -0.1949
     31 C         140.8497  140.0455  167.8723 C.ar    1  UNL1        0.1052
     32 C         141.0814  139.9392  169.3505 C.ar    1  UNL1        0.0432
     33 C         142.4159  139.2885  169.5648 C.ar    1  UNL1        0.1222
     34 N         143.0089  138.9928  168.2192 N.ar    1  UNL1       -0.1609
@<TRIPOS>BOND
     1     8     9    1
     2     9     2    1
     3     2     3   ar
     4     3     4   ar
     5     4     5   ar
     6     5     1    1
     7     1    18    1
     8    18    19   am
     9    19    20    2
    10    19    22    1
    11    22    23   ar
    12    23    24   ar
    13    24    25   ar
    14    25    30    1
    15    30    31   ar
    16    31    32   ar
    17    32    33   ar
    18    33    34   ar
    19    25    26   ar
    20    26    27   ar
    21    27    28    1
    22     1    10    1
    23    10    11   ar
    24    11    12   ar
    25    12    13   ar
    26    13    16    1
    27    16    17    1
    28    13    14   ar
    29    14    15   ar
    30     5     6   ar
    31     6     7   ar
    32     7     2   ar
    33    27    22   ar
    34    15    10   ar
    35    34    30   ar
    36    18    21    1
    37    28    29    1
@<TRIPOS>MOLECULE
*****
 34 37 0 0 0
SMALL
GASTEIGER

@<TRIPOS>ATOM
      1 C         140.0696  140.2468  159.0454 C.3     1  UNL1        0.1171
      2 C         142.3781  136.9207  157.0812 C.ar    1  UNL1        0.1387
      3 C         141.2289  137.5625  156.3620 C.ar    1  UNL1        0.0366
      4 C         140.4594  138.6712  157.0167 C.ar    1  UNL1        0.0008
      5 C         140.8391  139.1381  158.3907 C.ar    1  UNL1       -0.0001
      6 C         141.9883  138.4963  159.1099 C.ar    1  UNL1        0.0008
      7 C         142.7578  137.3876  158.4552 C.ar    1  UNL1        0.0366
      8 C         143.3415  134.5086  157.1432 C.3     1  UNL1        0.2525
      9 O         143.1475  135.8120  156.4265 O.3     1  UNL1       -0.4714
     10 C         139.2031  141.1490  158.2176 C.ar    1  UNL1       -0.0001
     11 C         139.7517  142.4438  157.6954 C.ar    1  UNL1        0.0008
     12 C         138.8852  143.3459  156.8676 C.ar    1  UNL1        0.0366
     13 C         137.4702  142.9533  156.5620 C.ar    1  UNL1        0.1387
     14 C         136.9216  141.6586  157.0841 C.ar    1  UNL1        0.0366
     15 C         137.7880  140.7564  157.9120 C.ar    1  UNL1        0.0008
     16 O         136.6037  143.8556  155.7342 O.3     1  UNL1       -0.4714
     17 C         137.0999  144.3687  154.4149 C.3     1  UNL1        0.2525
     18 N         140.1666  140.4534  160.5279 N.am    1  UNL1       -0.2949
     19 C         139.1655  139.8111  161.4418 C.2     1  UNL1        0.2523
     20 O         138.0673  138.9622  160.8731 O.2     1  UNL1       -0.2699
     21 H         140.8874  141.0105  160.9012 H       1  UNL1        0.1503
     22 C         139.2625  140.0177  162.9244 C.ar    1  UNL1        0.1254
     23 C         140.5102  139.6213  163.6567 C.ar    1  UNL1        0.1113
     24 N         140.6073  139.8279  165.1392 N.ar    1  UNL1       -0.2081
     25 C         139.4567  140.4308  165.8894 C.ar    1  UNL1        0.2556
     26 N         138.2090  140.8271  165.1571 N.ar    1  UNL1       -0.1750
     27 C         138.1120  140.6205  163.6745 C.ar    1  UNL1        0.2301
     28 O         136.8644  141.0168  162.9421 O.3     1  UNL1       -0.4918
     29 H         136.1456  141.3934  163.4107 H       1  UNL1        0.2938
     30 N         139.5538  140.6374  167.3719 N.ar    1  UNL1       -0.1949
     31 C         140.2358  141.7827  168.0597 C.ar    1  UNL1        0.1052
     32 C         140.0894  141.5881  169.5398 C.ar    1  UNL1        0.0432
     33 C         139.3169  140.3225  169.7668 C.ar    1  UNL1        0.1222
     34 N         138.9859  139.7349  168.4270 N.ar    1  UNL1       -0.1609
@<TRIPOS>BOND
     1     8     9    1
     2     9     2    1
     3     2     3   ar
     4     3     4   ar
     5     4     5   ar
     6     5     1    1
     7     1    18    1
     8    18    19   am
     9    19    20    2
    10    19    22    1
    11    22    23   ar
    12    23    24   ar
    13    24    25   ar
    14    25    30    1
    15    30    31   ar
    16    31    32   ar
    17    32    33   ar
    18    33    34   ar
    19    25    26   ar
    20    26    27   ar
    21    27    28    1
    22     1    10    1
    23    10    11   ar
    24    11    12   ar
    25    12    13   ar
    26    13    16    1
    27    16    17    1
    28    13    14   ar
    29    14    15   ar
    30     5     6   ar
    31     6     7   ar
    32     7     2   ar
    33    27    22   ar
    34    15    10   ar
    35    34    30   ar
    36    18    21    1
    37    28    29    1
@<TRIPOS>MOLECULE
*****
 34 37 0 0 0
SMALL
GASTEIGER

@<TRIPOS>ATOM
      1 C         142.4246  138.2167  157.6636 C.3     1  UNL1        0.1171
      2 C         141.5449  134.5118  155.2657 C.ar    1  UNL1        0.1387
      3 C         142.6927  134.5253  156.2313 C.ar    1  UNL1        0.0366
      4 C         142.9859  135.7602  157.0306 C.ar    1  UNL1        0.0008
      5 C         142.1314  136.9817  156.8643 C.ar    1  UNL1       -0.0001
      6 C         140.9836  136.9683  155.8988 C.ar    1  UNL1        0.0008
      7 C         140.6904  135.7333  155.0994 C.ar    1  UNL1        0.0366
      8 C         141.3212  131.9276  155.1180 C.3     1  UNL1        0.2525
      9 O         141.2517  133.2769  154.4664 O.3     1  UNL1       -0.4714
     10 C         143.4177  139.2200  157.1567 C.ar    1  UNL1       -0.0001
     11 C         143.8358  140.3676  158.0275 C.ar    1  UNL1        0.0008
     12 C         144.8289  141.3709  157.5206 C.ar    1  UNL1        0.0366
     13 C         145.4040  141.2267  156.1427 C.ar    1  UNL1        0.1387
     14 C         144.9860  140.0791  155.2718 C.ar    1  UNL1        0.0366
     15 C         143.9928  139.0758  155.7788 C.ar    1  UNL1        0.0008
     16 O         146.3971  142.2300  155.6357 O.3     1  UNL1       -0.4714
     17 C         147.6668  142.4781  156.3949 C.3     1  UNL1        0.2525
     18 N         141.7247  138.4483  158.9699 N.am    1  UNL1       -0.2949
     19 C         142.3403  137.9598  160.2476 C.2     1  UNL1        0.2523
     20 O         143.6558  137.2397  160.2190 O.2     1  UNL1       -0.2699
     21 H         140.8613  138.9210  158.9888 H       1  UNL1        0.1503
     22 C         141.6404  138.1915  161.5540 C.ar    1  UNL1        0.1254
     23 C         140.1459  138.0893  161.6325 C.ar    1  UNL1        0.1113
     24 N         139.4460  138.3209  162.9388 N.ar    1  UNL1       -0.2081
     25 C         140.2405  138.6549  164.1666 C.ar    1  UNL1        0.2556
     26 N         141.7349  138.7572  164.0880 N.ar    1  UNL1       -0.1750
     27 C         142.4349  138.5255  162.7816 C.ar    1  UNL1        0.2301
     28 O         143.9293  138.6277  162.7030 O.3     1  UNL1       -0.4918
     29 H         144.4256  138.8364  163.4699 H       1  UNL1        0.2938
     30 N         139.5405  138.8865  165.4728 N.ar    1  UNL1       -0.1949
     31 C         140.0584  139.7061  166.6174 C.ar    1  UNL1        0.1052
     32 C         139.0378  139.6654  167.7158 C.ar    1  UNL1        0.0432
     33 C         137.8890  138.8207  167.2501 C.ar    1  UNL1        0.1222
     34 N         138.1998  138.3393  165.8639 N.ar    1  UNL1       -0.1609
@<TRIPOS>BOND
     1     8     9    1
     2     9     2    1
     3     2     3   ar
     4     3     4   ar
     5     4     5   ar
     6     5     1    1
     7     1    18    1
     8    18    19   am
     9    19    20    2
    10    19    22    1
    11    22    23   ar
    12    23    24   ar
    13    24    25   ar
    14    25    30    1
    15    30    31   ar
    16    31    32   ar
    17    32    33   ar
    18    33    34   ar
    19    25    26   ar
    20    26    27   ar
    21    27    28    1
    22     1    10    1
    23    10    11   ar
    24    11    12   ar
    25    12    13   ar
    26    13    16    1
    27    16    17    1
    28    13    14   ar
    29    14    15   ar
    30     5     6   ar
    31     6     7   ar
    32     7     2   ar
    33    27    22   ar
    34    15    10   ar
    35    34    30   ar
    36    18    21    1
    37    28    29    1
@<TRIPOS>MOLECULE
*****
 34 37 0 0 0
SMALL
GASTEIGER

@<TRIPOS>ATOM
      1 C         142.4334  138.1019  157.6649 C.3     1  UNL1        0.1171
      2 C         145.3477  141.1635  156.1211 C.ar    1  UNL1        0.1387
      3 C         144.7424  141.3246  157.4840 C.ar    1  UNL1        0.0366
      4 C         143.7709  140.3040  157.9986 C.ar    1  UNL1        0.0008
      5 C         143.4048  139.1224  157.1503 C.ar    1  UNL1       -0.0001
      6 C         144.0102  138.9613  155.7874 C.ar    1  UNL1        0.0008
      7 C         144.9817  139.9818  155.2728 C.ar    1  UNL1        0.0366
      8 C         147.5900  142.4546  156.3561 C.3     1  UNL1        0.2525
      9 O         146.3192  142.1840  155.6066 O.3     1  UNL1       -0.4714
     10 C         142.1739  136.8505  156.8796 C.ar    1  UNL1       -0.0001
     11 C         143.0251  135.6355  157.1018 C.ar    1  UNL1        0.0008
     12 C         142.7657  134.3842  156.3165 C.ar    1  UNL1        0.0366
     13 C         141.6550  134.3477  155.3089 C.ar    1  UNL1        0.1387
     14 C         140.8038  135.5626  155.0867 C.ar    1  UNL1        0.0366
     15 C         141.0633  136.8141  155.8720 C.ar    1  UNL1        0.0008
     16 O         141.3956  133.0963  154.5236 O.3     1  UNL1       -0.4714
     17 C         142.5287  132.3937  153.8363 C.3     1  UNL1        0.2525
     18 N         141.7214  138.3327  158.9648 N.am    1  UNL1       -0.2949
     19 C         142.3691  137.9303  160.2565 C.2     1  UNL1        0.2523
     20 O         143.7289  137.2971  160.2483 O.2     1  UNL1       -0.2699
     21 H         140.8289  138.7483  158.9701 H       1  UNL1        0.1503
     22 C         141.6571  138.1611  161.5564 C.ar    1  UNL1        0.1254
     23 C         140.1616  138.0632  161.6200 C.ar    1  UNL1        0.1113
     24 N         139.4496  138.2941  162.9199 N.ar    1  UNL1       -0.2081
     25 C         140.2329  138.6228  164.1562 C.ar    1  UNL1        0.2556
     26 N         141.7284  138.7207  164.0925 N.ar    1  UNL1       -0.1750
     27 C         142.4405  138.4898  162.7926 C.ar    1  UNL1        0.2301
     28 O         143.9359  138.5877  162.7289 O.3     1  UNL1       -0.4918
     29 H         144.4253  138.7931  163.5012 H       1  UNL1        0.2938
     30 N         139.5209  138.8536  165.4560 N.ar    1  UNL1       -0.1949
     31 C         139.9958  139.7283  166.5782 C.ar    1  UNL1        0.1052
     32 C         138.9773  139.6656  167.6777 C.ar    1  UNL1        0.0432
     33 C         137.8729  138.7521  167.2349 C.ar    1  UNL1        0.1222
     34 N         138.2089  138.2503  165.8619 N.ar    1  UNL1       -0.1609
@<TRIPOS>BOND
     1     8     9    1
     2     9     2    1
     3     2     3   ar
     4     3     4   ar
     5     4     5   ar
     6     5     1    1
     7     1    18    1
     8    18    19   am
     9    19    20    2
    10    19    22    1
    11    22    23   ar
    12    23    24   ar
    13    24    25   ar
    14    25    30    1
    15    30    31   ar
    16    31    32   ar
    17    32    33   ar
    18    33    34   ar
    19    25    26   ar
    20    26    27   ar
    21    27    28    1
    22     1    10    1
    23    10    11   ar
    24    11    12   ar
    25    12    13   ar
    26    13    16    1
    27    16    17    1
    28    13    14   ar
    29    14    15   ar
    30     5     6   ar
    31     6     7   ar
    32     7     2   ar
    33    27    22   ar
    34    15    10   ar
    35    34    30   ar
    36    18    21    1
    37    28    29    1
@<TRIPOS>MOLECULE
*****
 34 37 0 0 0
SMALL
GASTEIGER

@<TRIPOS>ATOM
      1 C         141.2848  140.1896  163.2498 C.3     1  UNL1        0.1171
      2 C         142.7333  139.0572  167.3570 C.ar    1  UNL1        0.1387
      3 C         143.5071  138.6307  166.1448 C.ar    1  UNL1        0.0366
      4 C         143.0242  139.0082  164.7758 C.ar    1  UNL1        0.0008
      5 C         141.7676  139.8121  164.6189 C.ar    1  UNL1       -0.0001
      6 C         140.9939  140.2386  165.8310 C.ar    1  UNL1        0.0008
      7 C         141.4767  139.8611  167.2001 C.ar    1  UNL1        0.0366
      8 C         142.4434  139.1077  169.9384 C.3     1  UNL1        0.2525
      9 O         143.2162  138.6797  168.7261 O.3     1  UNL1       -0.4714
     10 C         140.6623  141.5345  163.0184 C.ar    1  UNL1       -0.0001
     11 C         139.3017  141.6340  162.3949 C.ar    1  UNL1        0.0008
     12 C         138.6792  142.9790  162.1635 C.ar    1  UNL1        0.0366
     13 C         139.4174  144.2245  162.5556 C.ar    1  UNL1        0.1387
     14 C         140.7780  144.1251  163.1791 C.ar    1  UNL1        0.0366
     15 C         141.4005  142.7801  163.4105 C.ar    1  UNL1        0.0008
     16 O         138.7948  145.5695  162.3242 O.3     1  UNL1       -0.4714
     17 C         139.4981  146.5851  161.4734 C.3     1  UNL1        0.2525
     18 N         141.4244  139.2221  162.1121 N.am    1  UNL1       -0.2949
     19 C         142.0883  139.6533  160.8380 C.2     1  UNL1        0.2523
     20 O         142.6126  141.0520  160.7016 O.2     1  UNL1       -0.2699
     21 H         141.0803  138.3040  162.2016 H       1  UNL1        0.1503
     22 C         142.2279  138.6857  159.7003 C.ar    1  UNL1        0.1254
     23 C         141.5421  138.9594  158.3946 C.ar    1  UNL1        0.1113
     24 N         141.6816  137.9919  157.2569 N.ar    1  UNL1       -0.2081
     25 C         142.5070  136.7506  157.4248 C.ar    1  UNL1        0.2556
     26 N         143.1928  136.4770  158.7305 N.ar    1  UNL1       -0.1750
     27 C         143.0532  137.4446  159.8682 C.ar    1  UNL1        0.2301
     28 O         143.7390  137.1709  161.1739 O.3     1  UNL1       -0.4918
     29 H         144.2546  136.3956  161.2788 H       1  UNL1        0.2938
     30 N         142.6466  135.7831  156.2871 N.ar    1  UNL1       -0.1949
     31 C         142.0766  135.9533  154.9101 C.ar    1  UNL1        0.1052
     32 C         142.4583  134.7509  154.0986 C.ar    1  UNL1        0.0432
     33 C         143.2643  133.8376  154.9741 C.ar    1  UNL1        0.1222
     34 N         143.3806  134.4756  156.3266 N.ar    1  UNL1       -0.1609
@<TRIPOS>BOND
     1     8     9    1
     2     9     2    1
     3     2     3   ar
     4     3     4   ar
     5     4     5   ar
     6     5     1    1
     7     1    18    1
     8    18    19   am
     9    19    20    2
    10    19    22    1
    11    22    23   ar
    12    23    24   ar
    13    24    25   ar
    14    25    30    1
    15    30    31   ar
    16    31    32   ar
    17    32    33   ar
    18    33    34   ar
    19    25    26   ar
    20    26    27   ar
    21    27    28    1
    22     1    10    1
    23    10    11   ar
    24    11    12   ar
    25    12    13   ar
    26    13    16    1
    27    16    17    1
    28    13    14   ar
    29    14    15   ar
    30     5     6   ar
    31     6     7   ar
    32     7     2   ar
    33    27    22   ar
    34    15    10   ar
    35    34    30   ar
    36    18    21    1
    37    28    29    1
@<TRIPOS>MOLECULE
*****
 34 37 0 0 0
SMALL
GASTEIGER

@<TRIPOS>ATOM
      1 C         142.3660  140.1880  158.6056 C.3     1  UNL1        0.1171
      2 C         139.3162  138.0487  156.0813 C.ar    1  UNL1        0.1387
      3 C         140.4040  137.2721  156.7622 C.ar    1  UNL1        0.0366
      4 C         141.4206  137.9852  157.6036 C.ar    1  UNL1        0.0008
      5 C         141.3494  139.4749  157.7641 C.ar    1  UNL1       -0.0001
      6 C         140.2616  140.2514  157.0832 C.ar    1  UNL1        0.0008
      7 C         139.2450  139.5383  156.2418 C.ar    1  UNL1        0.0366
      8 C         137.3795  138.1185  154.3508 C.3     1  UNL1        0.2525
      9 O         138.2996  137.3356  155.2399 O.3     1  UNL1       -0.4714
     10 C         143.5635  140.8200  157.9602 C.ar    1  UNL1       -0.0001
     11 C         144.0596  140.3111  156.6392 C.ar    1  UNL1        0.0008
     12 C         145.2571  140.9430  155.9938 C.ar    1  UNL1        0.0366
     13 C         145.9585  142.0840  156.6693 C.ar    1  UNL1        0.1387
     14 C         145.4625  142.5929  157.9902 C.ar    1  UNL1        0.0366
     15 C         144.2649  141.9609  158.6357 C.ar    1  UNL1        0.0008
     16 O         147.1561  142.7159  156.0238 O.3     1  UNL1       -0.4714
     17 C         148.3712  141.8887  155.7253 C.3     1  UNL1        0.2525
     18 N         142.1851  140.2691  160.0924 N.am    1  UNL1       -0.2949
     19 C         142.7695  139.2089  160.9780 C.2     1  UNL1        0.2523
     20 O         143.5348  138.0675  160.3768 O.2     1  UNL1       -0.2699
     21 H         141.6828  141.0183  160.4870 H       1  UNL1        0.1503
     22 C         142.5886  139.2900  162.4649 C.ar    1  UNL1        0.1254
     23 C         143.0377  140.5123  163.2094 C.ar    1  UNL1        0.1113
     24 N         142.8568  140.5936  164.6962 N.ar    1  UNL1       -0.2081
     25 C         142.2268  139.4524  165.4385 C.ar    1  UNL1        0.2556
     26 N         141.7778  138.2301  164.6940 N.ar    1  UNL1       -0.1750
     27 C         141.9587  138.1490  163.2071 C.ar    1  UNL1        0.2301
     28 O         141.5096  136.9266  162.4626 O.3     1  UNL1       -0.4918
     29 H         141.1161  136.2138  162.9263 H       1  UNL1        0.2938
     30 N         142.0460  139.5337  166.9254 N.ar    1  UNL1       -0.1949
     31 C         140.8705  140.1327  167.6391 C.ar    1  UNL1        0.1052
     32 C         141.1068  139.9994  169.1143 C.ar    1  UNL1        0.0432
     33 C         142.4284  139.3179  169.3124 C.ar    1  UNL1        0.1222
     34 N         143.0088  139.0301  167.9595 N.ar    1  UNL1       -0.1609
@<TRIPOS>BOND
     1     8     9    1
     2     9     2    1
     3     2     3   ar
     4     3     4   ar
     5     4     5   ar
     6     5     1    1
     7     1    18    1
     8    18    19   am
     9    19    20    2
    10    19    22    1
    11    22    23   ar
    12    23    24   ar
    13    24    25   ar
    14    25    30    1
    15    30    31   ar
    16    31    32   ar
    17    32    33   ar
    18    33    34   ar
    19    25    26   ar
    20    26    27   ar
    21    27    28    1
    22     1    10    1
    23    10    11   ar
    24    11    12   ar
    25    12    13   ar
    26    13    16    1
    27    16    17    1
    28    13    14   ar
    29    14    15   ar
    30     5     6   ar
    31     6     7   ar
    32     7     2   ar
    33    27    22   ar
    34    15    10   ar
    35    34    30   ar
    36    18    21    1
    37    28    29    1
@<TRIPOS>MOLECULE
*****
 34 37 0 0 0
SMALL
GASTEIGER

@<TRIPOS>ATOM
      1 C         139.7263  146.5294  156.1087 C.3     1  UNL1        0.1171
      2 C         138.1811  143.2606  153.4297 C.ar    1  UNL1        0.1387
      3 C         139.6547  143.3954  153.6750 C.ar    1  UNL1        0.0366
      4 C         140.1698  144.4850  154.5680 C.ar    1  UNL1        0.0008
      5 C         139.2113  145.4398  155.2157 C.ar    1  UNL1       -0.0001
      6 C         137.7376  145.3050  154.9704 C.ar    1  UNL1        0.0008
      7 C         137.2226  144.2154  154.0774 C.ar    1  UNL1        0.0366
      8 C         136.5122  141.3210  152.9796 C.3     1  UNL1        0.2525
      9 O         137.6660  142.1710  152.5367 O.3     1  UNL1       -0.4714
     10 C         139.3945  147.9618  155.8121 C.ar    1  UNL1       -0.0001
     11 C         138.6181  148.7733  156.8065 C.ar    1  UNL1        0.0008
     12 C         138.2863  150.2057  156.5099 C.ar    1  UNL1        0.0366
     13 C         138.7309  150.8268  155.2189 C.ar    1  UNL1        0.1387
     14 C         139.5072  150.0154  154.2245 C.ar    1  UNL1        0.0366
     15 C         139.8391  148.5829  154.5211 C.ar    1  UNL1        0.0008
     16 O         138.3990  152.2593  154.9223 O.3     1  UNL1       -0.4714
     17 C         138.3888  152.7487  153.5045 C.3     1  UNL1        0.2525
     18 N         140.5732  146.1866  157.2983 N.am    1  UNL1       -0.2949
     19 C         140.1711  145.0624  158.2063 C.2     1  UNL1        0.2523
     20 O         138.9221  144.2810  157.9247 O.2     1  UNL1       -0.2699
     21 H         141.3930  146.6995  157.4831 H       1  UNL1        0.1503
     22 C         141.0181  144.7196  159.3960 C.ar    1  UNL1        0.1254
     23 C         142.2385  143.8641  159.2263 C.ar    1  UNL1        0.1113
     24 N         143.0855  143.5213  160.4158 N.ar    1  UNL1       -0.2081
     25 C         142.7120  144.0340  161.7752 C.ar    1  UNL1        0.2556
     26 N         141.4916  144.8895  161.9449 N.ar    1  UNL1       -0.1750
     27 C         140.6447  145.2323  160.7552 C.ar    1  UNL1        0.2301
     28 O         139.4243  146.0878  160.9250 O.3     1  UNL1       -0.4918
     29 H         139.1910  146.4080  161.7741 H       1  UNL1        0.2938
     30 N         143.5590  143.6912  162.9647 N.ar    1  UNL1       -0.1949
     31 C         144.5636  142.5800  163.0409 C.ar    1  UNL1        0.1052
     32 C         145.1756  142.6014  164.4103 C.ar    1  UNL1        0.0432
     33 C         144.5492  143.7260  165.1804 C.ar    1  UNL1        0.1222
     34 N         143.5501  144.3995  164.2870 N.ar    1  UNL1       -0.1609
@<TRIPOS>BOND
     1     8     9    1
     2     9     2    1
     3     2     3   ar
     4     3     4   ar
     5     4     5   ar
     6     5     1    1
     7     1    18    1
     8    18    19   am
     9    19    20    2
    10    19    22    1
    11    22    23   ar
    12    23    24   ar
    13    24    25   ar
    14    25    30    1
    15    30    31   ar
    16    31    32   ar
    17    32    33   ar
    18    33    34   ar
    19    25    26   ar
    20    26    27   ar
    21    27    28    1
    22     1    10    1
    23    10    11   ar
    24    11    12   ar
    25    12    13   ar
    26    13    16    1
    27    16    17    1
    28    13    14   ar
    29    14    15   ar
    30     5     6   ar
    31     6     7   ar
    32     7     2   ar
    33    27    22   ar
    34    15    10   ar
    35    34    30   ar
    36    18    21    1
    37    28    29    1
@<TRIPOS>MOLECULE
*****
 34 37 0 0 0
SMALL
GASTEIGER

@<TRIPOS>ATOM
      1 C         141.3498  136.7521  156.2312 C.3     1  UNL1        0.1171
      2 C         143.1987  132.7427  155.3615 C.ar    1  UNL1        0.1387
      3 C         142.1173  133.2790  154.4711 C.ar    1  UNL1        0.0366
      4 C         141.5010  134.6154  154.7610 C.ar    1  UNL1        0.0008
      5 C         141.9661  135.4156  155.9413 C.ar    1  UNL1       -0.0001
      6 C         143.0474  134.8794  156.8318 C.ar    1  UNL1        0.0008
      7 C         143.6638  133.5429  156.5419 C.ar    1  UNL1        0.0366
      8 C         144.9412  130.8992  155.9228 C.3     1  UNL1        0.2525
      9 O         143.8150  131.4062  155.0717 O.3     1  UNL1       -0.4714
     10 C         140.3903  137.3634  155.2537 C.ar    1  UNL1       -0.0001
     11 C         140.8993  138.2583  154.1627 C.ar    1  UNL1        0.0008
     12 C         139.9398  138.8696  153.1852 C.ar    1  UNL1        0.0366
     13 C         138.4712  138.5861  153.2986 C.ar    1  UNL1        0.1387
     14 C         137.9621  137.6914  154.3895 C.ar    1  UNL1        0.0366
     15 C         138.9217  137.0800  155.3671 C.ar    1  UNL1        0.0008
     16 O         137.5117  139.1975  152.3210 O.3     1  UNL1       -0.4714
     17 C         136.1026  139.4958  152.7398 C.3     1  UNL1        0.2525
     18 N         141.6930  137.4772  157.4986 N.am    1  UNL1       -0.2949
     19 C         142.9231  138.3331  157.5635 C.2     1  UNL1        0.2523
     20 O         143.8101  138.4638  156.3609 O.2     1  UNL1       -0.2699
     21 H         141.1108  137.3914  158.2879 H       1  UNL1        0.1503
     22 C         143.2663  139.0582  158.8310 C.ar    1  UNL1        0.1254
     23 C         143.5397  140.5328  158.8009 C.ar    1  UNL1        0.1113
     24 N         143.8829  141.2580  160.0683 N.ar    1  UNL1       -0.2081
     25 C         143.9527  140.5085  161.3658 C.ar    1  UNL1        0.2556
     26 N         143.6793  139.0340  161.3959 N.ar    1  UNL1       -0.1750
     27 C         143.3361  138.3088  160.1284 C.ar    1  UNL1        0.2301
     28 O         143.0628  136.8342  160.1585 O.3     1  UNL1       -0.4918
     29 H         143.1064  136.3661  160.9690 H       1  UNL1        0.2938
     30 N         144.2958  141.2337  162.6332 N.ar    1  UNL1       -0.1949
     31 C         143.3237  141.6789  163.6852 C.ar    1  UNL1        0.1052
     32 C         144.0984  142.3613  164.7733 C.ar    1  UNL1        0.0432
     33 C         145.5495  142.3379  164.3939 C.ar    1  UNL1        0.1222
     34 N         145.6715  141.6410  163.0712 N.ar    1  UNL1       -0.1609
@<TRIPOS>BOND
     1     8     9    1
     2     9     2    1
     3     2     3   ar
     4     3     4   ar
     5     4     5   ar
     6     5     1    1
     7     1    18    1
     8    18    19   am
     9    19    20    2
    10    19    22    1
    11    22    23   ar
    12    23    24   ar
    13    24    25   ar
    14    25    30    1
    15    30    31   ar
    16    31    32   ar
    17    32    33   ar
    18    33    34   ar
    19    25    26   ar
    20    26    27   ar
    21    27    28    1
    22     1    10    1
    23    10    11   ar
    24    11    12   ar
    25    12    13   ar
    26    13    16    1
    27    16    17    1
    28    13    14   ar
    29    14    15   ar
    30     5     6   ar
    31     6     7   ar
    32     7     2   ar
    33    27    22   ar
    34    15    10   ar
    35    34    30   ar
    36    18    21    1
    37    28    29    1
@<TRIPOS>MOLECULE
*****
 34 37 0 0 0
SMALL
GASTEIGER

@<TRIPOS>ATOM
      1 C         140.2083  139.6248  159.1830 C.3     1  UNL1        0.1171
      2 C         139.5475  138.7745  163.5523 C.ar    1  UNL1        0.1387
      3 C         138.8159  137.9768  162.5139 C.ar    1  UNL1        0.0366
      4 C         139.0361  138.2602  161.0575 C.ar    1  UNL1        0.0008
      5 C         139.9880  139.3414  160.6394 C.ar    1  UNL1       -0.0001
      6 C         140.7197  140.1391  161.6777 C.ar    1  UNL1        0.0008
      7 C         140.4994  139.8557  163.1342 C.ar    1  UNL1        0.0366
      8 C         138.2794  139.2477  165.7699 C.3     1  UNL1        0.2525
      9 O         139.3273  138.4911  165.0087 O.3     1  UNL1       -0.4714
     10 C         140.7893  138.5668  158.2925 C.ar    1  UNL1       -0.0001
     11 C         142.2017  138.1055  158.4989 C.ar    1  UNL1        0.0008
     12 C         142.7828  137.0475  157.6084 C.ar    1  UNL1        0.0366
     13 C         141.9516  136.4508  156.5116 C.ar    1  UNL1        0.1387
     14 C         140.5393  136.9120  156.3052 C.ar    1  UNL1        0.0366
     15 C         139.9581  137.9701  157.1957 C.ar    1  UNL1        0.0008
     16 O         142.5327  135.3927  155.6211 O.3     1  UNL1       -0.4714
     17 C         143.6424  134.5169  156.1226 C.3     1  UNL1        0.2525
     18 N         139.8474  140.9662  158.6170 N.am    1  UNL1       -0.2949
     19 C         140.9096  142.0064  158.4176 C.2     1  UNL1        0.2523
     20 O         142.3326  141.7052  158.7841 O.2     1  UNL1       -0.2699
     21 H         138.9135  141.1639  158.3765 H       1  UNL1        0.1503
     22 C         140.5487  143.3479  157.8516 C.ar    1  UNL1        0.1254
     23 C         139.5519  143.4473  156.7350 C.ar    1  UNL1        0.1113
     24 N         139.1910  144.7887  156.1690 N.ar    1  UNL1       -0.2081
     25 C         139.8268  146.0307  156.7195 C.ar    1  UNL1        0.2556
     26 N         140.8236  145.9314  157.8361 N.ar    1  UNL1       -0.1750
     27 C         141.1845  144.5899  158.4021 C.ar    1  UNL1        0.2301
     28 O         142.1812  144.4905  159.5186 O.3     1  UNL1       -0.4918
     29 H         142.5784  145.2664  159.8625 H       1  UNL1        0.2938
     30 N         139.4659  147.3721  156.1535 N.ar    1  UNL1       -0.1949
     31 C         139.8267  147.8792  154.7888 C.ar    1  UNL1        0.1052
     32 C         139.2646  149.2624  154.6446 C.ar    1  UNL1        0.0432
     33 C         138.5564  149.6102  155.9204 C.ar    1  UNL1        0.1222
     34 N         138.6808  148.4420  156.8529 N.ar    1  UNL1       -0.1609
@<TRIPOS>BOND
     1     8     9    1
     2     9     2    1
     3     2     3   ar
     4     3     4   ar
     5     4     5   ar
     6     5     1    1
     7     1    18    1
     8    18    19   am
     9    19    20    2
    10    19    22    1
    11    22    23   ar
    12    23    24   ar
    13    24    25   ar
    14    25    30    1
    15    30    31   ar
    16    31    32   ar
    17    32    33   ar
    18    33    34   ar
    19    25    26   ar
    20    26    27   ar
    21    27    28    1
    22     1    10    1
    23    10    11   ar
    24    11    12   ar
    25    12    13   ar
    26    13    16    1
    27    16    17    1
    28    13    14   ar
    29    14    15   ar
    30     5     6   ar
    31     6     7   ar
    32     7     2   ar
    33    27    22   ar
    34    15    10   ar
    35    34    30   ar
    36    18    21    1
    37    28    29    1
