@<TRIPOS>MOLECULE
*****
 35 39 0 0 0
SMALL
GASTEIGER

@<TRIPOS>ATOM
      1 N         141.0424  144.3438  161.5874 N.ar    1  UNL1       -0.2817
      2 C         140.6156  145.1027  160.3661 C.ar    1  UNL1        0.3316
      3 O         139.5937  146.1999  160.3222 O.2     1  UNL1       -0.2463
      4 N         141.3900  144.5718  159.1963 N.ar    1  UNL1       -0.2765
      5 C         141.2785  145.0449  157.7772 C.3     1  UNL1        0.1352
      6 C         142.2955  143.4848  159.6947 C.ar    1  UNL1        0.0989
      7 C         143.2878  142.6051  158.9937 C.ar    1  UNL1        0.1175
      8 N         144.0654  141.5844  159.7707 N.ar    1  UNL1       -0.2422
      9 C         143.8506  141.4435  161.2485 C.ar    1  UNL1        0.0850
     10 C         144.6282  140.4227  162.0254 C.ar    1  UNL1        0.0488
     11 C         144.4134  140.2818  163.5032 C.ar    1  UNL1        0.1416
     12 F         145.1909  139.2611  164.2801 F       1  UNL1       -0.2041
     13 C         143.4210  141.1615  164.2042 C.ar    1  UNL1        0.0291
     14 C         142.6434  142.1822  163.4272 C.ar    1  UNL1        0.0053
     15 C         142.8582  142.3232  161.9494 C.ar    1  UNL1        0.0352
     16 C         142.0807  143.3438  161.1725 C.ar    1  UNL1        0.0826
     17 C         143.2062  141.0206  165.6820 C.ar    1  UNL1        0.0216
     18 C         142.9438  139.6684  166.2761 C.ar    1  UNL1        0.0064
     19 C         142.7290  139.5274  167.7539 C.ar    1  UNL1        0.0577
     20 C         142.7766  140.7386  168.6376 C.ar    1  UNL1        0.2249
     21 N         143.0389  142.0907  168.0435 N.ar    1  UNL1       -0.2101
     22 C         143.2537  142.2316  166.5657 C.ar    1  UNL1        0.1021
     23 O         142.5617  140.5977  170.1155 O.3     1  UNL1       -0.4602
     24 C         141.2659  141.0369  170.7303 C.3     1  UNL1        0.2085
     25 C         140.0830  141.3317  169.8563 C.3     1  UNL1        0.0647
     26 C         139.3003  140.2056  169.2486 C.3     1  UNL1        0.0759
     27 N         139.1288  140.1289  167.7604 N.3     1  UNL1       -0.2726
     28 C         138.4114  138.9629  167.1473 C.3     1  UNL1        0.0721
     29 C         138.2399  138.8861  165.6591 C.3     1  UNL1        0.0174
     30 C         138.7859  139.9753  164.7840 C.3     1  UNL1        0.0029
     31 C         139.5034  141.1412  165.3972 C.3     1  UNL1        0.0174
     32 C         139.6748  141.2179  166.8854 C.3     1  UNL1        0.0721
     33 C         141.3565  145.2759  163.9922 C.3     1  UNL1        0.0246
     34 C         140.5224  144.5487  162.9794 C.3     1  UNL1        0.0900
     35 C         139.1684  144.0267  163.3586 C.3     1  UNL1        0.0246
@<TRIPOS>BOND
     1    33    34    1
     2    34    35    1
     3    34     1    1
     4     1     2   ar
     5     2     3    2
     6     2     4   ar
     7     4     5    1
     8     4     6   ar
     9     6     7   ar
    10     7     8   ar
    11     8     9   ar
    12     9    10   ar
    13    10    11   ar
    14    11    12    1
    15    11    13   ar
    16    13    17    1
    17    17    18   ar
    18    18    19   ar
    19    19    20   ar
    20    20    23    1
    21    23    24    1
    22    24    25    1
    23    25    26    1
    24    26    27    1
    25    27    28    1
    26    28    29    1
    27    29    30    1
    28    30    31    1
    29    31    32    1
    30    20    21   ar
    31    21    22   ar
    32    13    14   ar
    33    14    15   ar
    34    15    16   ar
    35    16     1   ar
    36    16     6   ar
    37    15     9   ar
    38    22    17   ar
    39    32    27    1
@<TRIPOS>MOLECULE
*****
 35 39 0 0 0
SMALL
GASTEIGER

@<TRIPOS>ATOM
      1 N         139.5952  142.9807  161.3369 N.ar    1  UNL1       -0.2817
      2 C         139.6396  143.4883  159.9261 C.ar    1  UNL1        0.3316
      3 O         139.9004  144.9046  159.5065 O.2     1  UNL1       -0.2463
      4 N         139.3774  142.3310  159.0087 N.ar    1  UNL1       -0.2765
      5 C         139.3300  142.3867  157.5104 C.3     1  UNL1        0.1352
      6 C         139.1710  141.1081  159.8524 C.ar    1  UNL1        0.0989
      7 C         138.8778  139.6808  159.4963 C.ar    1  UNL1        0.1175
      8 N         138.7193  138.6550  160.5791 N.ar    1  UNL1       -0.2422
      9 C         138.8539  139.0565  162.0181 C.ar    1  UNL1        0.0850
     10 C         138.6954  138.0307  163.1010 C.ar    1  UNL1        0.0488
     11 C         138.8300  138.4322  164.5400 C.ar    1  UNL1        0.1416
     12 F         138.6714  137.4065  165.6229 F       1  UNL1       -0.2041
     13 C         139.1231  139.8596  164.8961 C.ar    1  UNL1        0.0291
     14 C         139.2817  140.8854  163.8132 C.ar    1  UNL1        0.0053
     15 C         139.1471  140.4838  162.3742 C.ar    1  UNL1        0.0352
     16 C         139.3056  141.5096  161.2914 C.ar    1  UNL1        0.0826
     17 C         139.2577  140.2612  166.3350 C.ar    1  UNL1        0.0216
     18 C         139.7538  141.6321  166.6879 C.ar    1  UNL1        0.0064
     19 C         139.8884  142.0337  168.1268 C.ar    1  UNL1        0.0577
     20 C         139.5270  141.0642  169.2130 C.ar    1  UNL1        0.2249
     21 N         139.0309  139.6934  168.8601 N.ar    1  UNL1       -0.2101
     22 C         138.8963  139.2918  167.4211 C.ar    1  UNL1        0.1021
     23 O         139.6616  141.4658  170.6520 O.3     1  UNL1       -0.4602
     24 C         141.0213  141.5755  171.2760 C.3     1  UNL1        0.2085
     25 C         142.1410  140.7022  170.7925 C.3     1  UNL1        0.0647
     26 C         143.1977  141.2680  169.8908 C.3     1  UNL1        0.0759
     27 N         143.1217  141.0389  168.4104 N.3     1  UNL1       -0.2726
     28 C         142.8191  139.6695  167.8780 C.3     1  UNL1        0.0721
     29 C         142.7432  139.4404  166.3975 C.3     1  UNL1        0.0174
     30 C         142.9698  140.5806  165.4495 C.3     1  UNL1        0.0029
     31 C         143.2724  141.9498  165.9819 C.3     1  UNL1        0.0174
     32 C         143.3484  142.1790  167.4624 C.3     1  UNL1        0.0721
     33 C         141.1609  143.8664  163.2116 C.3     1  UNL1        0.0246
     34 C         139.8038  143.8002  162.5758 C.3     1  UNL1        0.0900
     35 C         138.6555  144.5535  163.1790 C.3     1  UNL1        0.0246
@<TRIPOS>BOND
     1    33    34    1
     2    34    35    1
     3    34     1    1
     4     1     2   ar
     5     2     3    2
     6     2     4   ar
     7     4     5    1
     8     4     6   ar
     9     6     7   ar
    10     7     8   ar
    11     8     9   ar
    12     9    10   ar
    13    10    11   ar
    14    11    12    1
    15    11    13   ar
    16    13    17    1
    17    17    18   ar
    18    18    19   ar
    19    19    20   ar
    20    20    23    1
    21    23    24    1
    22    24    25    1
    23    25    26    1
    24    26    27    1
    25    27    28    1
    26    28    29    1
    27    29    30    1
    28    30    31    1
    29    31    32    1
    30    20    21   ar
    31    21    22   ar
    32    13    14   ar
    33    14    15   ar
    34    15    16   ar
    35    16     1   ar
    36    16     6   ar
    37    15     9   ar
    38    22    17   ar
    39    32    27    1
@<TRIPOS>MOLECULE
*****
 35 39 0 0 0
SMALL
GASTEIGER

@<TRIPOS>ATOM
      1 N         141.2610  139.3044  160.6822 N.ar    1  UNL1       -0.2817
      2 C         141.6877  138.9934  159.2782 C.ar    1  UNL1        0.3316
      3 O         142.6227  137.8964  158.8633 O.2     1  UNL1       -0.2463
      4 N         141.0150  139.9722  158.3619 N.ar    1  UNL1       -0.2765
      5 C         141.1594  140.0257  156.8698 C.3     1  UNL1        0.1352
      6 C         140.1727  140.8880  159.1996 C.ar    1  UNL1        0.0989
      7 C         139.2870  142.0445  158.8418 C.ar    1  UNL1        0.1175
      8 N         138.5532  142.7882  159.9181 N.ar    1  UNL1       -0.2422
      9 C         138.7053  142.3754  161.3522 C.ar    1  UNL1        0.0850
     10 C         137.9715  143.1192  162.4285 C.ar    1  UNL1        0.0488
     11 C         138.1235  142.7065  163.8626 C.ar    1  UNL1        0.1416
     12 F         137.3898  143.4502  164.9389 F       1  UNL1       -0.2041
     13 C         139.0093  141.5500  164.2203 C.ar    1  UNL1        0.0291
     14 C         139.7431  140.8063  163.1440 C.ar    1  UNL1        0.0053
     15 C         139.5910  141.2190  161.7099 C.ar    1  UNL1        0.0352
     16 C         140.3248  140.4753  160.6336 C.ar    1  UNL1        0.0826
     17 C         139.1614  141.1373  165.6544 C.ar    1  UNL1        0.0216
     18 C         138.7397  139.7647  166.0886 C.ar    1  UNL1        0.0064
     19 C         138.8917  139.3520  167.5226 C.ar    1  UNL1        0.0577
     20 C         139.4655  140.3118  168.5225 C.ar    1  UNL1        0.2249
     21 N         139.8872  141.6842  168.0883 N.ar    1  UNL1       -0.2101
     22 C         139.7351  142.0970  166.6542 C.ar    1  UNL1        0.1021
     23 O         139.6175  139.8991  169.9566 O.3     1  UNL1       -0.4602
     24 C         140.6707  140.5374  170.8131 C.3     1  UNL1        0.2085
     25 C         142.1034  140.1135  170.6808 C.3     1  UNL1        0.0647
     26 C         143.0718  140.9700  169.9200 C.3     1  UNL1        0.0759
     27 N         143.0632  140.9609  168.4201 N.3     1  UNL1       -0.2726
     28 C         142.8027  139.6829  167.6793 C.3     1  UNL1        0.0721
     29 C         142.7941  139.6738  166.1793 C.3     1  UNL1        0.0174
     30 C         143.0460  140.9429  165.4202 C.3     1  UNL1        0.0029
     31 C         143.3065  142.2209  166.1611 C.3     1  UNL1        0.0174
     32 C         143.3151  142.2299  167.6610 C.3     1  UNL1        0.0721
     33 C         140.7530  137.6221  162.5959 C.3     1  UNL1        0.0246
     34 C         141.6946  138.5729  161.9179 C.3     1  UNL1        0.0900
     35 C         143.0696  138.7920  162.4756 C.3     1  UNL1        0.0246
@<TRIPOS>BOND
     1    33    34    1
     2    34    35    1
     3    34     1    1
     4     1     2   ar
     5     2     3    2
     6     2     4   ar
     7     4     5    1
     8     4     6   ar
     9     6     7   ar
    10     7     8   ar
    11     8     9   ar
    12     9    10   ar
    13    10    11   ar
    14    11    12    1
    15    11    13   ar
    16    13    17    1
    17    17    18   ar
    18    18    19   ar
    19    19    20   ar
    20    20    23    1
    21    23    24    1
    22    24    25    1
    23    25    26    1
    24    26    27    1
    25    27    28    1
    26    28    29    1
    27    29    30    1
    28    30    31    1
    29    31    32    1
    30    20    21   ar
    31    21    22   ar
    32    13    14   ar
    33    14    15   ar
    34    15    16   ar
    35    16     1   ar
    36    16     6   ar
    37    15     9   ar
    38    22    17   ar
    39    32    27    1
@<TRIPOS>MOLECULE
*****
 35 39 0 0 0
SMALL
GASTEIGER

@<TRIPOS>ATOM
      1 N         139.9133  143.3986  160.4675 N.ar    1  UNL1       -0.2817
      2 C         139.9488  144.2388  159.2254 C.ar    1  UNL1        0.3316
      3 O         140.3421  145.6843  159.1496 O.2     1  UNL1       -0.2463
      4 N         139.5220  143.3796  158.0724 N.ar    1  UNL1       -0.2765
      5 C         139.4135  143.8151  156.6411 C.3     1  UNL1        0.1352
      6 C         139.2226  142.0084  158.6018 C.ar    1  UNL1        0.0989
      7 C         138.7611  140.7507  157.9273 C.ar    1  UNL1        0.1175
      8 N         138.5414  139.5048  158.7331 N.ar    1  UNL1       -0.2422
      9 C         138.7833  139.5165  160.2134 C.ar    1  UNL1        0.0850
     10 C         138.5636  138.2705  161.0192 C.ar    1  UNL1        0.0488
     11 C         138.8054  138.2823  162.4995 C.ar    1  UNL1        0.1416
     12 F         138.5858  137.0363  163.3053 F       1  UNL1       -0.2041
     13 C         139.2670  139.5401  163.1740 C.ar    1  UNL1        0.0291
     14 C         139.4867  140.7860  162.3683 C.ar    1  UNL1        0.0053
     15 C         139.2448  140.7743  160.8879 C.ar    1  UNL1        0.0352
     16 C         139.4645  142.0202  160.0822 C.ar    1  UNL1        0.0826
     17 C         139.5089  139.5519  164.6544 C.ar    1  UNL1        0.0216
     18 C         138.3535  139.6825  165.6021 C.ar    1  UNL1        0.0064
     19 C         138.5953  139.6942  167.0824 C.ar    1  UNL1        0.0577
     20 C         139.9926  139.5754  167.6150 C.ar    1  UNL1        0.2249
     21 N         141.1479  139.4449  166.6673 N.ar    1  UNL1       -0.2101
     22 C         140.9060  139.4331  165.1870 C.ar    1  UNL1        0.1021
     23 O         140.2344  139.5872  169.0953 O.3     1  UNL1       -0.4602
     24 C         139.3666  140.4213  169.9905 C.3     1  UNL1        0.2085
     25 C         139.5876  141.9022  170.0816 C.3     1  UNL1        0.0647
     26 C         140.9399  142.4784  169.7834 C.3     1  UNL1        0.0759
     27 N         141.4220  142.5657  168.3657 N.3     1  UNL1       -0.2726
     28 C         140.4668  142.9364  167.2702 C.3     1  UNL1        0.0721
     29 C         140.9489  143.0236  165.8524 C.3     1  UNL1        0.0174
     30 C         142.3863  142.7401  165.5302 C.3     1  UNL1        0.0029
     31 C         143.3414  142.3695  166.6258 C.3     1  UNL1        0.0174
     32 C         142.8593  142.2822  168.0435 C.3     1  UNL1        0.0721
     33 C         141.6953  143.8498  162.3036 C.3     1  UNL1        0.0246
     34 C         140.2649  143.8565  161.8520 C.3     1  UNL1        0.0900
     35 C         139.1861  144.3211  162.7849 C.3     1  UNL1        0.0246
@<TRIPOS>BOND
     1    33    34    1
     2    34    35    1
     3    34     1    1
     4     1     2   ar
     5     2     3    2
     6     2     4   ar
     7     4     5    1
     8     4     6   ar
     9     6     7   ar
    10     7     8   ar
    11     8     9   ar
    12     9    10   ar
    13    10    11   ar
    14    11    12    1
    15    11    13   ar
    16    13    17    1
    17    17    18   ar
    18    18    19   ar
    19    19    20   ar
    20    20    23    1
    21    23    24    1
    22    24    25    1
    23    25    26    1
    24    26    27    1
    25    27    28    1
    26    28    29    1
    27    29    30    1
    28    30    31    1
    29    31    32    1
    30    20    21   ar
    31    21    22   ar
    32    13    14   ar
    33    14    15   ar
    34    15    16   ar
    35    16     1   ar
    36    16     6   ar
    37    15     9   ar
    38    22    17   ar
    39    32    27    1
@<TRIPOS>MOLECULE
*****
 35 39 0 0 0
SMALL
GASTEIGER

@<TRIPOS>ATOM
      1 N         139.7911  139.6156  166.2813 N.ar    1  UNL1       -0.2817
      2 C         139.0170  139.5340  167.5636 C.ar    1  UNL1        0.3316
      3 O         137.7848  138.7116  167.7989 O.2     1  UNL1       -0.2463
      4 N         139.6915  140.4193  168.5692 N.ar    1  UNL1       -0.2765
      5 C         139.2522  140.6376  169.9868 C.3     1  UNL1        0.1352
      6 C         140.8824  141.0480  167.9085 C.ar    1  UNL1        0.0989
      7 C         141.9186  142.0086  168.4118 C.ar    1  UNL1        0.1175
      8 N         143.0165  142.4725  167.5010 N.ar    1  UNL1       -0.2422
      9 C         143.0780  141.9757  166.0870 C.ar    1  UNL1        0.0850
     10 C         144.1759  142.4396  165.1762 C.ar    1  UNL1        0.0488
     11 C         144.2375  141.9429  163.7622 C.ar    1  UNL1        0.1416
     12 F         145.3353  142.4067  162.8514 F       1  UNL1       -0.2041
     13 C         143.2011  140.9822  163.2589 C.ar    1  UNL1        0.0291
     14 C         142.1033  140.5184  164.1697 C.ar    1  UNL1        0.0053
     15 C         142.0417  141.0151  165.5837 C.ar    1  UNL1        0.0352
     16 C         140.9439  140.5512  166.4945 C.ar    1  UNL1        0.0826
     17 C         143.2627  140.4855  161.8449 C.ar    1  UNL1        0.0216
     18 C         142.5695  141.2446  160.7525 C.ar    1  UNL1        0.0064
     19 C         142.6311  140.7478  159.3384 C.ar    1  UNL1        0.0577
     20 C         143.3858  139.4920  159.0169 C.ar    1  UNL1        0.2249
     21 N         144.0789  138.7329  160.1093 N.ar    1  UNL1       -0.2101
     22 C         144.0173  139.2297  161.5233 C.ar    1  UNL1        0.1021
     23 O         143.4473  138.9952  157.6029 O.3     1  UNL1       -0.4602
     24 C         142.5694  137.8592  157.1681 C.3     1  UNL1        0.2085
     25 C         142.9690  136.4450  157.4687 C.3     1  UNL1        0.0647
     26 C         142.6103  135.3452  156.5139 C.3     1  UNL1        0.0759
     27 N         143.3673  134.0505  156.5426 N.3     1  UNL1       -0.2726
     28 C         144.1433  133.6624  157.7663 C.3     1  UNL1        0.0721
     29 C         144.9003  132.3678  157.7949 C.3     1  UNL1        0.0174
     30 C         144.8812  131.4612  156.6000 C.3     1  UNL1        0.0029
     31 C         144.1052  131.8493  155.3764 C.3     1  UNL1        0.0174
     32 C         143.3482  133.1440  155.3478 C.3     1  UNL1        0.0721
     33 C         140.0902  137.5523  164.7309 C.3     1  UNL1        0.0246
     34 C         139.4689  138.8890  165.0092 C.3     1  UNL1        0.0900
     35 C         138.5255  139.4990  164.0154 C.3     1  UNL1        0.0246
@<TRIPOS>BOND
     1    33    34    1
     2    34    35    1
     3    34     1    1
     4     1     2   ar
     5     2     3    2
     6     2     4   ar
     7     4     5    1
     8     4     6   ar
     9     6     7   ar
    10     7     8   ar
    11     8     9   ar
    12     9    10   ar
    13    10    11   ar
    14    11    12    1
    15    11    13   ar
    16    13    17    1
    17    17    18   ar
    18    18    19   ar
    19    19    20   ar
    20    20    23    1
    21    23    24    1
    22    24    25    1
    23    25    26    1
    24    26    27    1
    25    27    28    1
    26    28    29    1
    27    29    30    1
    28    30    31    1
    29    31    32    1
    30    20    21   ar
    31    21    22   ar
    32    13    14   ar
    33    14    15   ar
    34    15    16   ar
    35    16     1   ar
    36    16     6   ar
    37    15     9   ar
    38    22    17   ar
    39    32    27    1
@<TRIPOS>MOLECULE
*****
 35 39 0 0 0
SMALL
GASTEIGER

@<TRIPOS>ATOM
      1 N         139.9172  140.2067  166.6605 N.ar    1  UNL1       -0.2817
      2 C         139.3459  139.8385  167.9977 C.ar    1  UNL1        0.3316
      3 O         138.1125  139.0182  168.2340 O.2     1  UNL1       -0.2463
      4 N         140.2246  140.4347  169.0572 N.ar    1  UNL1       -0.2765
      5 C         140.0242  140.3153  170.5389 C.3     1  UNL1        0.1352
      6 C         141.3390  141.1713  168.3748 C.ar    1  UNL1        0.0989
      7 C         142.5021  141.9522  168.9108 C.ar    1  UNL1        0.1175
      8 N         143.4752  142.5921  167.9656 N.ar    1  UNL1       -0.2422
      9 C         143.2852  142.4512  166.4843 C.ar    1  UNL1        0.0850
     10 C         144.2584  143.0911  165.5391 C.ar    1  UNL1        0.0488
     11 C         144.0685  142.9502  164.0579 C.ar    1  UNL1        0.1416
     12 F         145.0416  143.5901  163.1127 F       1  UNL1       -0.2041
     13 C         142.9052  142.1693  163.5219 C.ar    1  UNL1        0.0291
     14 C         141.9321  141.5294  164.4671 C.ar    1  UNL1        0.0053
     15 C         142.1221  141.6703  165.9483 C.ar    1  UNL1        0.0352
     16 C         141.1490  141.0304  166.8935 C.ar    1  UNL1        0.0826
     17 C         142.7153  142.0284  162.0407 C.ar    1  UNL1        0.0216
     18 C         143.0986  143.1530  161.1250 C.ar    1  UNL1        0.0064
     19 C         142.9086  143.0120  159.6438 C.ar    1  UNL1        0.0577
     20 C         142.3353  141.7465  159.0782 C.ar    1  UNL1        0.2249
     21 N         141.9520  140.6220  159.9939 N.ar    1  UNL1       -0.2101
     22 C         142.1420  140.7629  161.4751 C.ar    1  UNL1        0.1021
     23 O         142.1453  141.6056  157.5970 O.3     1  UNL1       -0.4602
     24 C         140.9856  142.2766  156.9224 C.3     1  UNL1        0.2085
     25 C         139.7507  142.6077  157.7068 C.3     1  UNL1        0.0647
     26 C         139.5783  143.9785  158.2910 C.3     1  UNL1        0.0759
     27 N         139.6608  144.1769  159.7755 N.3     1  UNL1       -0.2726
     28 C         139.1938  143.0952  160.7039 C.3     1  UNL1        0.0721
     29 C         139.2763  143.2937  162.1884 C.3     1  UNL1        0.0174
     30 C         139.8259  144.5739  162.7445 C.3     1  UNL1        0.0029
     31 C         140.2928  145.6555  161.8161 C.3     1  UNL1        0.0174
     32 C         140.2103  145.4571  160.3316 C.3     1  UNL1        0.0721
     33 C         138.2951  140.6644  164.6833 C.3     1  UNL1        0.0246
     34 C         139.3554  139.8192  165.3248 C.3     1  UNL1        0.0900
     35 C         139.8538  138.5865  164.6305 C.3     1  UNL1        0.0246
@<TRIPOS>BOND
     1    33    34    1
     2    34    35    1
     3    34     1    1
     4     1     2   ar
     5     2     3    2
     6     2     4   ar
     7     4     5    1
     8     4     6   ar
     9     6     7   ar
    10     7     8   ar
    11     8     9   ar
    12     9    10   ar
    13    10    11   ar
    14    11    12    1
    15    11    13   ar
    16    13    17    1
    17    17    18   ar
    18    18    19   ar
    19    19    20   ar
    20    20    23    1
    21    23    24    1
    22    24    25    1
    23    25    26    1
    24    26    27    1
    25    27    28    1
    26    28    29    1
    27    29    30    1
    28    30    31    1
    29    31    32    1
    30    20    21   ar
    31    21    22   ar
    32    13    14   ar
    33    14    15   ar
    34    15    16   ar
    35    16     1   ar
    36    16     6   ar
    37    15     9   ar
    38    22    17   ar
    39    32    27    1
@<TRIPOS>MOLECULE
*****
 35 39 0 0 0
SMALL
GASTEIGER

@<TRIPOS>ATOM
      1 N         142.4474  141.2794  167.1243 N.ar    1  UNL1       -0.2817
      2 C         142.6056  141.9113  168.4754 C.ar    1  UNL1        0.3316
      3 O         143.7508  142.7737  168.9168 O.2     1  UNL1       -0.2463
      4 N         141.4176  141.5293  169.3077 N.ar    1  UNL1       -0.2765
      5 C         141.1662  141.9428  170.7275 C.3     1  UNL1        0.1352
      6 C         140.5251  140.6614  168.4709 C.ar    1  UNL1        0.0989
      7 C         139.2152  139.9918  168.7634 C.ar    1  UNL1        0.1175
      8 N         138.5417  139.1677  167.7065 N.ar    1  UNL1       -0.2422
      9 C         139.1781  139.0132  166.3570 C.ar    1  UNL1        0.0850
     10 C         138.5046  138.1890  165.3000 C.ar    1  UNL1        0.0488
     11 C         139.1410  138.0345  163.9506 C.ar    1  UNL1        0.1416
     12 F         138.4675  137.2104  162.8936 F       1  UNL1       -0.2041
     13 C         140.4511  138.7042  163.6581 C.ar    1  UNL1        0.0291
     14 C         141.1246  139.5283  164.7150 C.ar    1  UNL1        0.0053
     15 C         140.4881  139.6828  166.0645 C.ar    1  UNL1        0.0352
     16 C         141.1616  140.5069  167.1215 C.ar    1  UNL1        0.0826
     17 C         141.0875  138.5497  162.3086 C.ar    1  UNL1        0.0216
     18 C         142.4580  137.9516  162.1898 C.ar    1  UNL1        0.0064
     19 C         143.0945  137.7971  160.8403 C.ar    1  UNL1        0.0577
     20 C         142.3604  138.2407  159.6097 C.ar    1  UNL1        0.2249
     21 N         140.9900  138.8388  159.7285 N.ar    1  UNL1       -0.2101
     22 C         140.3535  138.9933  161.0780 C.ar    1  UNL1        0.1021
     23 O         142.9969  138.0862  158.2602 O.3     1  UNL1       -0.4602
     24 C         143.0055  139.2376  157.2988 C.3     1  UNL1        0.2085
     25 C         144.0588  140.2998  157.4102 C.3     1  UNL1        0.0647
     26 C         143.7020  141.6573  157.9391 C.3     1  UNL1        0.0759
     27 N         143.1801  141.8040  159.3377 N.3     1  UNL1       -0.2726
     28 C         141.8150  142.3799  159.5723 C.3     1  UNL1        0.0721
     29 C         141.2931  142.5266  160.9709 C.3     1  UNL1        0.0174
     30 C         142.1363  142.0974  162.1349 C.3     1  UNL1        0.0029
     31 C         143.5013  141.5215  161.9003 C.3     1  UNL1        0.0174
     32 C         144.0232  141.3748  160.5017 C.3     1  UNL1        0.0721
     33 C         144.0366  140.1684  165.3950 C.3     1  UNL1        0.0246
     34 C         143.4066  141.3989  165.9772 C.3     1  UNL1        0.0900
     35 C         143.7358  142.7489  165.4123 C.3     1  UNL1        0.0246
@<TRIPOS>BOND
     1    33    34    1
     2    34    35    1
     3    34     1    1
     4     1     2   ar
     5     2     3    2
     6     2     4   ar
     7     4     5    1
     8     4     6   ar
     9     6     7   ar
    10     7     8   ar
    11     8     9   ar
    12     9    10   ar
    13    10    11   ar
    14    11    12    1
    15    11    13   ar
    16    13    17    1
    17    17    18   ar
    18    18    19   ar
    19    19    20   ar
    20    20    23    1
    21    23    24    1
    22    24    25    1
    23    25    26    1
    24    26    27    1
    25    27    28    1
    26    28    29    1
    27    29    30    1
    28    30    31    1
    29    31    32    1
    30    20    21   ar
    31    21    22   ar
    32    13    14   ar
    33    14    15   ar
    34    15    16   ar
    35    16     1   ar
    36    16     6   ar
    37    15     9   ar
    38    22    17   ar
    39    32    27    1
@<TRIPOS>MOLECULE
*****
 35 39 0 0 0
SMALL
GASTEIGER

@<TRIPOS>ATOM
      1 N         139.8502  140.3894  166.9358 N.ar    1  UNL1       -0.2817
      2 C         139.4077  140.0055  168.3167 C.ar    1  UNL1        0.3316
      3 O         138.1743  139.2250  168.6623 O.2     1  UNL1       -0.2463
      4 N         140.4154  140.5392  169.2913 N.ar    1  UNL1       -0.2765
      5 C         140.3664  140.3861  170.7827 C.3     1  UNL1        0.1352
      6 C         141.4805  141.2529  168.5128 C.ar    1  UNL1        0.0989
      7 C         142.7234  141.9750  168.9414 C.ar    1  UNL1        0.1175
      8 N         143.6169  142.6046  167.9142 N.ar    1  UNL1       -0.2422
      9 C         143.2676  142.5121  166.4584 C.ar    1  UNL1        0.0850
     10 C         144.1612  143.1417  165.4312 C.ar    1  UNL1        0.0488
     11 C         143.8119  143.0491  163.9754 C.ar    1  UNL1        0.1416
     12 F         144.7054  143.6787  162.9482 F       1  UNL1       -0.2041
     13 C         142.5690  142.3269  163.5468 C.ar    1  UNL1        0.0291
     14 C         141.6754  141.6973  164.5739 C.ar    1  UNL1        0.0053
     15 C         142.0248  141.7899  166.0298 C.ar    1  UNL1        0.0352
     16 C         141.1312  141.1603  167.0570 C.ar    1  UNL1        0.0826
     17 C         142.2197  142.2343  162.0909 C.ar    1  UNL1        0.0216
     18 C         143.2377  141.7421  161.1052 C.ar    1  UNL1        0.0064
     19 C         142.8883  141.6495  159.6494 C.ar    1  UNL1        0.0577
     20 C         141.5211  142.0491  159.1793 C.ar    1  UNL1        0.2249
     21 N         140.5032  142.5413  160.1650 N.ar    1  UNL1       -0.2101
     22 C         140.8525  142.6339  161.6208 C.ar    1  UNL1        0.1021
     23 O         141.1718  141.9566  157.7235 O.3     1  UNL1       -0.4602
     24 C         140.8554  140.6241  157.1114 C.3     1  UNL1        0.2085
     25 C         140.2871  139.5251  157.9595 C.3     1  UNL1        0.0647
     26 C         141.1579  138.3811  158.3870 C.3     1  UNL1        0.0759
     27 N         141.7220  138.3463  159.7764 N.3     1  UNL1       -0.2726
     28 C         143.1504  137.9443  159.9960 C.3     1  UNL1        0.0721
     29 C         143.7146  137.9096  161.3855 C.3     1  UNL1        0.0174
     30 C         142.8504  138.2768  162.5552 C.3     1  UNL1        0.0029
     31 C         141.4221  138.6788  162.3356 C.3     1  UNL1        0.0174
     32 C         140.8579  138.7136  160.9461 C.3     1  UNL1        0.0721
     33 C         139.2510  138.6858  165.0679 C.3     1  UNL1        0.0246
     34 C         139.1368  140.0602  165.6580 C.3     1  UNL1        0.0900
     35 C         138.3094  141.1052  164.9702 C.3     1  UNL1        0.0246
@<TRIPOS>BOND
     1    33    34    1
     2    34    35    1
     3    34     1    1
     4     1     2   ar
     5     2     3    2
     6     2     4   ar
     7     4     5    1
     8     4     6   ar
     9     6     7   ar
    10     7     8   ar
    11     8     9   ar
    12     9    10   ar
    13    10    11   ar
    14    11    12    1
    15    11    13   ar
    16    13    17    1
    17    17    18   ar
    18    18    19   ar
    19    19    20   ar
    20    20    23    1
    21    23    24    1
    22    24    25    1
    23    25    26    1
    24    26    27    1
    25    27    28    1
    26    28    29    1
    27    29    30    1
    28    30    31    1
    29    31    32    1
    30    20    21   ar
    31    21    22   ar
    32    13    14   ar
    33    14    15   ar
    34    15    16   ar
    35    16     1   ar
    36    16     6   ar
    37    15     9   ar
    38    22    17   ar
    39    32    27    1
@<TRIPOS>MOLECULE
*****
 35 39 0 0 0
SMALL
GASTEIGER

@<TRIPOS>ATOM
      1 N         139.7922  139.5993  166.2599 N.ar    1  UNL1       -0.2817
      2 C         139.0086  139.5090  167.5357 C.ar    1  UNL1        0.3316
      3 O         137.7702  138.6911  167.7539 O.2     1  UNL1       -0.2463
      4 N         139.6808  140.3802  168.5551 N.ar    1  UNL1       -0.2765
      5 C         139.2327  140.5865  169.9717 C.3     1  UNL1        0.1352
      6 C         140.8798  141.0089  167.9093 C.ar    1  UNL1        0.0989
      7 C         141.9178  141.9585  168.4296 C.ar    1  UNL1        0.1175
      8 N         143.0246  142.4254  167.5314 N.ar    1  UNL1       -0.2422
      9 C         143.0935  141.9428  166.1129 C.ar    1  UNL1        0.0850
     10 C         144.2004  142.4098  165.2146 C.ar    1  UNL1        0.0488
     11 C         144.2693  141.9271  163.7961 C.ar    1  UNL1        0.1416
     12 F         145.3761  142.3941  162.8979 F       1  UNL1       -0.2041
     13 C         143.2312  140.9775  163.2758 C.ar    1  UNL1        0.0291
     14 C         142.1244  140.5105  164.1740 C.ar    1  UNL1        0.0053
     15 C         142.0555  140.9932  165.5925 C.ar    1  UNL1        0.0352
     16 C         140.9487  140.5262  166.4907 C.ar    1  UNL1        0.0826
     17 C         143.3001  140.4948  161.8572 C.ar    1  UNL1        0.0216
     18 C         142.9668  141.4275  160.7306 C.ar    1  UNL1        0.0064
     19 C         143.0357  140.9449  159.3121 C.ar    1  UNL1        0.0577
     20 C         143.4378  139.5295  159.0201 C.ar    1  UNL1        0.2249
     21 N         143.7710  138.5969  160.1466 N.ar    1  UNL1       -0.2101
     22 C         143.7021  139.0796  161.5652 C.ar    1  UNL1        0.1021
     23 O         143.5066  139.0469  157.6015 O.3     1  UNL1       -0.4602
     24 C         142.7938  137.7890  157.2019 C.3     1  UNL1        0.2085
     25 C         141.4899  137.8677  156.4647 C.3     1  UNL1        0.0647
     26 C         140.1963  137.8356  157.2233 C.3     1  UNL1        0.0759
     27 N         139.9309  138.8493  158.2966 N.3     1  UNL1       -0.2726
     28 C         139.5446  140.2505  157.9259 C.3     1  UNL1        0.0721
     29 C         139.2793  141.2642  158.9993 C.3     1  UNL1        0.0174
     30 C         139.4002  140.8766  160.4434 C.3     1  UNL1        0.0029
     31 C         139.7865  139.4754  160.8140 C.3     1  UNL1        0.0174
     32 C         140.0518  138.4617  159.7406 C.3     1  UNL1        0.0721
     33 C         138.4919  139.4819  164.0136 C.3     1  UNL1        0.0246
     34 C         139.4750  138.8875  164.9781 C.3     1  UNL1        0.0900
     35 C         140.1409  137.5815  164.6609 C.3     1  UNL1        0.0246
@<TRIPOS>BOND
     1    33    34    1
     2    34    35    1
     3    34     1    1
     4     1     2   ar
     5     2     3    2
     6     2     4   ar
     7     4     5    1
     8     4     6   ar
     9     6     7   ar
    10     7     8   ar
    11     8     9   ar
    12     9    10   ar
    13    10    11   ar
    14    11    12    1
    15    11    13   ar
    16    13    17    1
    17    17    18   ar
    18    18    19   ar
    19    19    20   ar
    20    20    23    1
    21    23    24    1
    22    24    25    1
    23    25    26    1
    24    26    27    1
    25    27    28    1
    26    28    29    1
    27    29    30    1
    28    30    31    1
    29    31    32    1
    30    20    21   ar
    31    21    22   ar
    32    13    14   ar
    33    14    15   ar
    34    15    16   ar
    35    16     1   ar
    36    16     6   ar
    37    15     9   ar
    38    22    17   ar
    39    32    27    1
