@<TRIPOS>MOLECULE
*****
 46 52 0 0 0
SMALL
GASTEIGER

@<TRIPOS>ATOM
      1 C         139.5439  138.9457  162.3877 C.ar    1  UNL1       -0.0061
      2 C         140.8923  139.4225  162.8400 C.ar    1  UNL1       -0.0029
      3 C         141.0374  140.1180  164.1610 C.ar    1  UNL1        0.0011
      4 C         139.8343  140.3367  165.0297 C.ar    1  UNL1        0.0156
      5 C         138.4860  139.8599  164.5773 C.ar    1  UNL1        0.0011
      6 C         138.3408  139.1644  163.2563 C.ar    1  UNL1       -0.0029
      7 C         139.9796  141.0323  166.3507 C.ar    1  UNL1        0.0565
      8 N         140.2079  140.2320  167.5986 N.ar    1  UNL1       -0.3530
      9 C         140.3532  140.9276  168.9197 C.ar    1  UNL1        0.0628
     10 C         140.5816  140.1273  170.1676 C.ar    1  UNL1        0.0378
     11 C         140.7268  140.8229  171.4885 C.ar    1  UNL1        0.1037
     12 N         140.6437  142.3188  171.5616 N.ar    1  UNL1       -0.2062
     13 C         140.4153  143.1191  170.3137 C.ar    1  UNL1        0.2806
     14 O         140.3321  144.6150  170.3868 O.2     1  UNL1       -0.2651
     15 C         140.2700  142.4235  168.9928 C.ar    1  UNL1        0.0735
     16 C         140.0416  143.2238  167.7448 C.ar    1  UNL1        0.0077
     17 C         139.8964  142.5282  166.4238 C.ar    1  UNL1        0.0158
     18 H         140.2625  139.2502  167.5506 H       1  UNL1        0.1659
     19 C         139.6680  143.3286  165.1758 C.ar    1  UNL1        0.0014
     20 C         138.2712  143.5729  164.6867 C.ar    1  UNL1        0.0000
     21 C         138.0427  144.3731  163.4388 C.ar    1  UNL1        0.0000
     22 C         139.2111  144.9291  162.6800 C.ar    1  UNL1        0.0000
     23 C         140.6079  144.6848  163.1691 C.ar    1  UNL1        0.0000
     24 C         140.8364  143.8845  164.4170 C.ar    1  UNL1        0.0000
     25 C         139.3987  138.2501  161.0666 C.3     1  UNL1        0.0991
     26 C         142.5816  138.7109  157.9191 C.3     1  UNL1        0.0613
     27 C         142.9370  138.1673  159.2712 C.3     1  UNL1        0.0249
     28 C         141.8760  138.0137  160.3204 C.3     1  UNL1        0.0728
     29 N         140.4596  138.4037  160.0174 N.3     1  UNL1       -0.2689
     30 C         140.1042  138.9473  158.6654 C.3     1  UNL1        0.0728
     31 C         141.1652  139.1010  157.6162 C.3     1  UNL1        0.0249
     32 C         145.3536  139.8235  155.4406 C.ar    1  UNL1        0.1644
     33 N         145.1968  138.3784  155.0704 N.ar    1  UNL1       -0.1293
     34 N         144.1393  137.7857  155.9538 N.ar    1  UNL1       -0.1336
     35 C         143.6426  138.8645  156.8700 C.ar    1  UNL1        0.1396
     36 N         144.3930  140.1240  156.5528 N.ar    1  UNL1       -0.3245
     37 H         144.2757  140.9949  156.9967 H       1  UNL1        0.1686
     38 N         149.1557  143.7185  152.9159 N.pl3   1  UNL1       -0.3426
     39 C         148.2052  142.7447  153.5471 C.ar    1  UNL1        0.1254
     40 C         148.2264  142.5310  155.0317 C.ar    1  UNL1        0.0340
     41 C         147.2758  141.5573  155.6628 C.ar    1  UNL1        0.0075
     42 C         146.3041  140.7973  154.8094 C.ar    1  UNL1        0.0550
     43 C         146.2830  141.0110  153.3249 C.ar    1  UNL1        0.1033
     44 N         147.2335  141.9847  152.6937 N.ar    1  UNL1       -0.2295
     45 H         149.7935  144.2173  153.4760 H       1  UNL1        0.1437
     46 H         149.1418  143.8587  151.9415 H       1  UNL1        0.1437
@<TRIPOS>BOND
     1    38    39    1
     2    39    40   ar
     3    40    41   ar
     4    41    42   ar
     5    42    32    1
     6    32    33   ar
     7    33    34   ar
     8    34    35   ar
     9    35    26    1
    10    26    27    1
    11    27    28    1
    12    28    29    1
    13    29    25    1
    14    25     1    1
    15     1     2   ar
    16     2     3   ar
    17     3     4   ar
    18     4     7    1
    19     7     8   ar
    20     8     9   ar
    21     9    10   ar
    22    10    11   ar
    23    11    12   ar
    24    12    13   ar
    25    13    14    2
    26    13    15   ar
    27    15    16   ar
    28    16    17   ar
    29    17    19    1
    30    19    20   ar
    31    20    21   ar
    32    21    22   ar
    33    22    23   ar
    34    23    24   ar
    35     4     5   ar
    36     5     6   ar
    37    29    30    1
    38    30    31    1
    39    35    36   ar
    40    42    43   ar
    41    43    44   ar
    42    44    39   ar
    43    36    32   ar
    44    31    26    1
    45     6     1   ar
    46    17     7   ar
    47    24    19   ar
    48    15     9    1
    49    38    45    1
    50    38    46    1
    51     8    18    1
    52    36    37    1
@<TRIPOS>MOLECULE
*****
 46 52 0 0 0
SMALL
GASTEIGER

@<TRIPOS>ATOM
      1 C         143.3798  142.1527  161.9049 C.ar    1  UNL1       -0.0061
      2 C         143.8072  143.2227  162.8653 C.ar    1  UNL1       -0.0029
      3 C         143.3288  143.1894  164.2865 C.ar    1  UNL1        0.0011
      4 C         142.4231  142.0861  164.7473 C.ar    1  UNL1        0.0156
      5 C         141.9957  141.0161  163.7869 C.ar    1  UNL1        0.0011
      6 C         142.4741  141.0494  162.3657 C.ar    1  UNL1       -0.0029
      7 C         141.9447  142.0528  166.1687 C.ar    1  UNL1        0.0565
      8 N         142.8463  141.5387  167.2516 N.ar    1  UNL1       -0.3530
      9 C         142.3679  141.5054  168.6730 C.ar    1  UNL1        0.0628
     10 C         143.2695  140.9914  169.7559 C.ar    1  UNL1        0.0378
     11 C         142.7911  140.9582  171.1772 C.ar    1  UNL1        0.1037
     12 N         141.4110  141.4389  171.5154 N.ar    1  UNL1       -0.2062
     13 C         140.5094  141.9529  170.4325 C.ar    1  UNL1        0.2806
     14 O         139.1294  142.4337  170.7708 O.2     1  UNL1       -0.2651
     15 C         140.9879  141.9862  169.0112 C.ar    1  UNL1        0.0735
     16 C         140.0862  142.5002  167.9282 C.ar    1  UNL1        0.0077
     17 C         140.5646  142.5335  166.5070 C.ar    1  UNL1        0.0158
     18 H         143.7520  141.2232  167.0296 H       1  UNL1        0.1659
     19 C         139.6630  143.0475  165.4239 C.ar    1  UNL1        0.0014
     20 C         138.5998  142.1594  164.8488 C.ar    1  UNL1        0.0000
     21 C         137.6982  142.6734  163.7658 C.ar    1  UNL1        0.0000
     22 C         137.8598  144.0755  163.2579 C.ar    1  UNL1        0.0000
     23 C         138.9231  144.9636  163.8331 C.ar    1  UNL1        0.0000
     24 C         139.8247  144.4496  164.9160 C.ar    1  UNL1        0.0000
     25 C         143.8582  142.1860  160.4835 C.3     1  UNL1        0.0991
     26 C         141.6612  144.6521  157.4271 C.3     1  UNL1        0.0613
     27 C         142.7944  143.7661  157.0019 C.3     1  UNL1        0.0249
     28 C         143.5268  142.9440  158.0208 C.3     1  UNL1        0.0728
     29 N         143.1259  143.0080  159.4648 N.3     1  UNL1       -0.2689
     30 C         141.9927  143.8941  159.8900 C.3     1  UNL1        0.0728
     31 C         141.2604  144.7161  158.8712 C.3     1  UNL1        0.0249
     32 C         139.9214  147.3550  155.2517 C.ar    1  UNL1        0.1644
     33 N         139.6825  146.1233  154.4296 N.ar    1  UNL1       -0.1293
     34 N         140.3051  144.9609  155.1444 N.ar    1  UNL1       -0.1336
     35 C         140.9289  145.4741  156.4084 C.ar    1  UNL1        0.1396
     36 N         140.6918  146.9538  156.4746 N.ar    1  UNL1       -0.3245
     37 H         140.9895  147.5559  157.1944 H       1  UNL1        0.1686
     38 N         138.1133  152.9112  153.8877 N.pl3   1  UNL1       -0.3426
     39 C         138.5654  151.5221  154.2287 C.ar    1  UNL1        0.1254
     40 C         139.4432  150.7643  153.2772 C.ar    1  UNL1        0.0340
     41 C         139.8952  149.3753  153.6183 C.ar    1  UNL1        0.0075
     42 C         139.4694  148.7440  154.9107 C.ar    1  UNL1        0.0550
     43 C         138.5916  149.5018  155.8621 C.ar    1  UNL1        0.1033
     44 N         138.1396  150.8909  155.5211 N.ar    1  UNL1       -0.2295
     45 H         138.3928  153.3254  153.0395 H       1  UNL1        0.1437
     46 H         137.5372  153.4085  154.5121 H       1  UNL1        0.1437
@<TRIPOS>BOND
     1    38    39    1
     2    39    40   ar
     3    40    41   ar
     4    41    42   ar
     5    42    32    1
     6    32    33   ar
     7    33    34   ar
     8    34    35   ar
     9    35    26    1
    10    26    27    1
    11    27    28    1
    12    28    29    1
    13    29    25    1
    14    25     1    1
    15     1     2   ar
    16     2     3   ar
    17     3     4   ar
    18     4     7    1
    19     7     8   ar
    20     8     9   ar
    21     9    10   ar
    22    10    11   ar
    23    11    12   ar
    24    12    13   ar
    25    13    14    2
    26    13    15   ar
    27    15    16   ar
    28    16    17   ar
    29    17    19    1
    30    19    20   ar
    31    20    21   ar
    32    21    22   ar
    33    22    23   ar
    34    23    24   ar
    35     4     5   ar
    36     5     6   ar
    37    29    30    1
    38    30    31    1
    39    35    36   ar
    40    42    43   ar
    41    43    44   ar
    42    44    39   ar
    43    36    32   ar
    44    31    26    1
    45     6     1   ar
    46    17     7   ar
    47    24    19   ar
    48    15     9    1
    49    38    45    1
    50    38    46    1
    51     8    18    1
    52    36    37    1
@<TRIPOS>MOLECULE
*****
 46 52 0 0 0
SMALL
GASTEIGER

@<TRIPOS>ATOM
      1 C         140.8256  139.3699  162.1128 C.ar    1  UNL1       -0.0061
      2 C         139.4850  139.6716  162.7144 C.ar    1  UNL1       -0.0029
      3 C         139.3966  140.2745  164.0850 C.ar    1  UNL1        0.0011
      4 C         140.6488  140.5757  164.8540 C.ar    1  UNL1        0.0156
      5 C         141.9893  140.2740  164.2524 C.ar    1  UNL1        0.0011
      6 C         142.0777  139.6711  162.8818 C.ar    1  UNL1       -0.0029
      7 C         140.5603  141.1787  166.2247 C.ar    1  UNL1        0.0565
      8 N         140.7940  140.3254  167.4359 N.ar    1  UNL1       -0.3530
      9 C         140.7055  140.9283  168.8066 C.ar    1  UNL1        0.0628
     10 C         140.9392  140.0750  170.0179 C.ar    1  UNL1        0.0378
     11 C         140.8507  140.6780  171.3885 C.ar    1  UNL1        0.1037
     12 N         140.5286  142.1343  171.5478 N.ar    1  UNL1       -0.2062
     13 C         140.2950  142.9877  170.3365 C.ar    1  UNL1        0.2806
     14 O         139.9729  144.4440  170.4959 O.2     1  UNL1       -0.2651
     15 C         140.3834  142.3847  168.9660 C.ar    1  UNL1        0.0735
     16 C         140.1498  143.2380  167.7546 C.ar    1  UNL1        0.0077
     17 C         140.2382  142.6350  166.3840 C.ar    1  UNL1        0.0158
     18 H         141.0054  139.3695  167.3314 H       1  UNL1        0.1659
     19 C         140.0046  143.4884  165.1727 C.ar    1  UNL1        0.0014
     20 C         141.1676  144.1081  164.4562 C.ar    1  UNL1        0.0000
     21 C         140.9340  144.9614  163.2449 C.ar    1  UNL1        0.0000
     22 C         139.5374  145.1950  162.7501 C.ar    1  UNL1        0.0000
     23 C         138.3744  144.5753  163.4666 C.ar    1  UNL1        0.0000
     24 C         138.6080  143.7220  164.6779 C.ar    1  UNL1        0.0000
     25 C         140.9140  138.7669  160.7421 C.3     1  UNL1        0.0991
     26 C         143.5979  140.6161  157.6394 C.3     1  UNL1        0.0613
     27 C         143.2823  139.1508  157.5809 C.3     1  UNL1        0.0249
     28 C         142.3876  138.5344  158.6152 C.3     1  UNL1        0.0728
     29 N         141.8086  139.3833  159.7079 N.3     1  UNL1       -0.2689
     30 C         142.1243  140.8485  159.7665 C.3     1  UNL1        0.0728
     31 C         143.0189  141.4649  158.7322 C.3     1  UNL1        0.0249
     32 C         146.4356  141.7472  155.2450 C.ar    1  UNL1        0.1644
     33 N         145.3029  142.6149  154.7823 N.ar    1  UNL1       -0.1293
     34 N         144.1020  142.2968  155.6229 N.ar    1  UNL1       -0.1336
     35 C         144.4926  141.2325  156.6052 C.ar    1  UNL1        0.1396
     36 N         145.9348  140.8928  156.3716 N.ar    1  UNL1       -0.3245
     37 H         146.4604  140.2262  156.8702 H       1  UNL1        0.1686
     38 N         151.9941  141.7018  152.9861 N.pl3   1  UNL1       -0.3426
     39 C         150.6045  141.7132  153.5508 C.ar    1  UNL1        0.1254
     40 C         150.3988  141.7296  155.0366 C.ar    1  UNL1        0.0340
     41 C         149.0092  141.7409  155.6013 C.ar    1  UNL1        0.0075
     42 C         147.8252  141.7358  154.6803 C.ar    1  UNL1        0.0550
     43 C         148.0309  141.7194  153.1946 C.ar    1  UNL1        0.1033
     44 N         149.4205  141.7081  152.6298 N.ar    1  UNL1       -0.2295
     45 H         152.7711  141.7052  153.5906 H       1  UNL1        0.1437
     46 H         152.1290  141.6910  152.0109 H       1  UNL1        0.1437
@<TRIPOS>BOND
     1    38    39    1
     2    39    40   ar
     3    40    41   ar
     4    41    42   ar
     5    42    32    1
     6    32    33   ar
     7    33    34   ar
     8    34    35   ar
     9    35    26    1
    10    26    27    1
    11    27    28    1
    12    28    29    1
    13    29    25    1
    14    25     1    1
    15     1     2   ar
    16     2     3   ar
    17     3     4   ar
    18     4     7    1
    19     7     8   ar
    20     8     9   ar
    21     9    10   ar
    22    10    11   ar
    23    11    12   ar
    24    12    13   ar
    25    13    14    2
    26    13    15   ar
    27    15    16   ar
    28    16    17   ar
    29    17    19    1
    30    19    20   ar
    31    20    21   ar
    32    21    22   ar
    33    22    23   ar
    34    23    24   ar
    35     4     5   ar
    36     5     6   ar
    37    29    30    1
    38    30    31    1
    39    35    36   ar
    40    42    43   ar
    41    43    44   ar
    42    44    39   ar
    43    36    32   ar
    44    31    26    1
    45     6     1   ar
    46    17     7   ar
    47    24    19   ar
    48    15     9    1
    49    38    45    1
    50    38    46    1
    51     8    18    1
    52    36    37    1
@<TRIPOS>MOLECULE
*****
 46 52 0 0 0
SMALL
GASTEIGER

@<TRIPOS>ATOM
      1 C         143.7004  141.9765  162.3194 C.ar    1  UNL1       -0.0061
      2 C         142.3679  142.5545  162.6940 C.ar    1  UNL1       -0.0029
      3 C         141.8102  142.3247  164.0673 C.ar    1  UNL1        0.0011
      4 C         142.5849  141.5169  165.0660 C.ar    1  UNL1        0.0156
      5 C         143.9173  140.9389  164.6913 C.ar    1  UNL1        0.0011
      6 C         144.4751  141.1687  163.3180 C.ar    1  UNL1       -0.0029
      7 C         142.0270  141.2871  166.4394 C.ar    1  UNL1        0.0565
      8 N         142.4740  142.1473  167.5840 N.ar    1  UNL1       -0.3530
      9 C         141.9162  141.9175  168.9574 C.ar    1  UNL1        0.0628
     10 C         142.3632  142.7776  170.1021 C.ar    1  UNL1        0.0378
     11 C         141.8053  142.5478  171.4753 C.ar    1  UNL1        0.1037
     12 N         140.8005  141.4579  171.7040 N.ar    1  UNL1       -0.2062
     13 C         140.3535  140.5977  170.5593 C.ar    1  UNL1        0.2806
     14 O         139.3486  139.5078  170.7879 O.2     1  UNL1       -0.2651
     15 C         140.9113  140.8275  169.1860 C.ar    1  UNL1        0.0735
     16 C         140.4643  139.9673  168.0413 C.ar    1  UNL1        0.0077
     17 C         141.0222  140.1972  166.6680 C.ar    1  UNL1        0.0158
     18 H         143.1335  142.8626  167.4340 H       1  UNL1        0.1659
     19 C         140.5752  139.3370  165.5233 C.ar    1  UNL1        0.0014
     20 C         141.4076  138.1644  165.0965 C.ar    1  UNL1        0.0000
     21 C         140.9607  137.3043  163.9519 C.ar    1  UNL1        0.0000
     22 C         139.6813  137.6167  163.2339 C.ar    1  UNL1        0.0000
     23 C         138.8488  138.7892  163.6606 C.ar    1  UNL1        0.0000
     24 C         139.2958  139.6494  164.8053 C.ar    1  UNL1        0.0000
     25 C         144.2582  142.2063  160.9460 C.3     1  UNL1        0.0991
     26 C         143.4005  139.2670  157.6483 C.3     1  UNL1        0.0613
     27 C         142.9808  138.9593  159.0551 C.3     1  UNL1        0.0249
     28 C         143.2667  139.9391  160.1544 C.3     1  UNL1        0.0728
     29 N         143.9723  141.2265  159.8468 N.3     1  UNL1       -0.2689
     30 C         144.3921  141.5342  158.4399 C.3     1  UNL1        0.0728
     31 C         144.1062  140.5545  157.3407 C.3     1  UNL1        0.0249
     32 C         142.9186  136.2198  155.2930 C.ar    1  UNL1        0.1644
     33 N         142.4306  137.3393  154.4220 N.ar    1  UNL1       -0.1293
     34 N         142.5517  138.6171  155.1984 N.ar    1  UNL1       -0.1336
     35 C         143.1146  138.2872  156.5491 C.ar    1  UNL1        0.1396
     36 N         143.3413  136.8057  156.6076 N.ar    1  UNL1       -0.3245
     37 H         143.7039  136.3056  157.3742 H       1  UNL1        0.1686
     38 N         143.1408  130.4170  153.7835 N.pl3   1  UNL1       -0.3426
     39 C         143.0853  131.8677  154.1609 C.ar    1  UNL1        0.1254
     40 C         142.2879  132.8288  153.3298 C.ar    1  UNL1        0.0340
     41 C         142.2325  134.2795  153.7073 C.ar    1  UNL1        0.0075
     42 C         142.9742  134.7691  154.9156 C.ar    1  UNL1        0.0550
     43 C         143.7714  133.8079  155.7466 C.ar    1  UNL1        0.1033
     44 N         143.8270  132.3572  155.3692 N.ar    1  UNL1       -0.2295
     45 H         142.6540  130.0957  152.9904 H       1  UNL1        0.1437
     46 H         143.6641  129.7861  154.3289 H       1  UNL1        0.1437
@<TRIPOS>BOND
     1    38    39    1
     2    39    40   ar
     3    40    41   ar
     4    41    42   ar
     5    42    32    1
     6    32    33   ar
     7    33    34   ar
     8    34    35   ar
     9    35    26    1
    10    26    27    1
    11    27    28    1
    12    28    29    1
    13    29    25    1
    14    25     1    1
    15     1     2   ar
    16     2     3   ar
    17     3     4   ar
    18     4     7    1
    19     7     8   ar
    20     8     9   ar
    21     9    10   ar
    22    10    11   ar
    23    11    12   ar
    24    12    13   ar
    25    13    14    2
    26    13    15   ar
    27    15    16   ar
    28    16    17   ar
    29    17    19    1
    30    19    20   ar
    31    20    21   ar
    32    21    22   ar
    33    22    23   ar
    34    23    24   ar
    35     4     5   ar
    36     5     6   ar
    37    29    30    1
    38    30    31    1
    39    35    36   ar
    40    42    43   ar
    41    43    44   ar
    42    44    39   ar
    43    36    32   ar
    44    31    26    1
    45     6     1   ar
    46    17     7   ar
    47    24    19   ar
    48    15     9    1
    49    38    45    1
    50    38    46    1
    51     8    18    1
    52    36    37    1
@<TRIPOS>MOLECULE
*****
 46 52 0 0 0
SMALL
GASTEIGER

@<TRIPOS>ATOM
      1 C         140.2454  140.8833  161.2257 C.ar    1  UNL1       -0.0061
      2 C         140.2631  142.1063  162.0939 C.ar    1  UNL1       -0.0029
      3 C         140.4141  141.9689  163.5799 C.ar    1  UNL1        0.0011
      4 C         140.5474  140.6085  164.1977 C.ar    1  UNL1        0.0156
      5 C         140.5298  139.3856  163.3294 C.ar    1  UNL1        0.0011
      6 C         140.3788  139.5230  161.8434 C.ar    1  UNL1       -0.0029
      7 C         140.6984  140.4712  165.6838 C.ar    1  UNL1        0.0565
      8 N         139.4936  140.2146  166.5395 N.ar    1  UNL1       -0.3530
      9 C         139.6446  140.0772  168.0256 C.ar    1  UNL1        0.0628
     10 C         138.4397  139.8206  168.8814 C.ar    1  UNL1        0.0378
     11 C         138.5907  139.6833  170.3674 C.ar    1  UNL1        0.1037
     12 N         139.9466  139.8026  170.9976 N.ar    1  UNL1       -0.2062
     13 C         141.1515  140.0592  170.1419 C.ar    1  UNL1        0.2806
     14 O         142.5075  140.1784  170.7722 O.2     1  UNL1       -0.2651
     15 C         141.0005  140.1965  168.6559 C.ar    1  UNL1        0.0735
     16 C         142.2054  140.4531  167.8001 C.ar    1  UNL1        0.0077
     17 C         142.0544  140.5905  166.3140 C.ar    1  UNL1        0.0158
     18 H         138.6036  140.1363  166.1259 H       1  UNL1        0.1659
     19 C         143.2593  140.8471  165.4582 C.ar    1  UNL1        0.0014
     20 C         143.9954  139.6980  164.8355 C.ar    1  UNL1        0.0000
     21 C         145.2002  139.9545  163.9797 C.ar    1  UNL1        0.0000
     22 C         145.6690  141.3602  163.7466 C.ar    1  UNL1        0.0000
     23 C         144.9329  142.5093  164.3693 C.ar    1  UNL1        0.0000
     24 C         143.7281  142.2527  165.2251 C.ar    1  UNL1        0.0000
     25 C         140.0944  141.0207  159.7396 C.3     1  UNL1        0.0991
     26 C         141.4618  137.7040  157.0229 C.3     1  UNL1        0.0613
     27 C         142.4677  138.6256  157.6465 C.3     1  UNL1        0.0249
     28 C         142.0119  139.7312  158.5521 C.3     1  UNL1        0.0728
     29 N         140.5502  139.9151  158.8340 N.3     1  UNL1       -0.2689
     30 C         139.5443  138.9936  158.2105 C.3     1  UNL1        0.0728
     31 C         140.0000  137.8881  157.3049 C.3     1  UNL1        0.0249
     32 C         142.8285  134.4946  155.3210 C.ar    1  UNL1        0.1644
     33 N         142.4093  135.2998  154.1269 N.ar    1  UNL1       -0.1293
     34 N         141.8462  136.6001  154.6191 N.ar    1  UNL1       -0.1336
     35 C         141.9175  136.5985  156.1174 C.ar    1  UNL1        0.1396
     36 N         142.5246  135.2972  156.5512 N.ar    1  UNL1       -0.3245
     37 H         142.6939  135.0189  157.4802 H       1  UNL1        0.1686
     38 N         145.2892  129.0237  155.1982 N.pl3   1  UNL1       -0.3426
     39 C         144.6740  130.3914  155.2289 C.ar    1  UNL1        0.1254
     40 C         145.0141  131.3420  156.3383 C.ar    1  UNL1        0.0340
     41 C         144.3989  132.7097  156.3690 C.ar    1  UNL1        0.0075
     42 C         143.4437  133.1269  155.2903 C.ar    1  UNL1        0.0550
     43 C         143.1036  132.1763  154.1809 C.ar    1  UNL1        0.1033
     44 N         143.7188  130.8086  154.1502 N.ar    1  UNL1       -0.2295
     45 H         145.9161  128.7499  155.9062 H       1  UNL1        0.1437
     46 H         145.0660  128.3998  154.4701 H       1  UNL1        0.1437
@<TRIPOS>BOND
     1    38    39    1
     2    39    40   ar
     3    40    41   ar
     4    41    42   ar
     5    42    32    1
     6    32    33   ar
     7    33    34   ar
     8    34    35   ar
     9    35    26    1
    10    26    27    1
    11    27    28    1
    12    28    29    1
    13    29    25    1
    14    25     1    1
    15     1     2   ar
    16     2     3   ar
    17     3     4   ar
    18     4     7    1
    19     7     8   ar
    20     8     9   ar
    21     9    10   ar
    22    10    11   ar
    23    11    12   ar
    24    12    13   ar
    25    13    14    2
    26    13    15   ar
    27    15    16   ar
    28    16    17   ar
    29    17    19    1
    30    19    20   ar
    31    20    21   ar
    32    21    22   ar
    33    22    23   ar
    34    23    24   ar
    35     4     5   ar
    36     5     6   ar
    37    29    30    1
    38    30    31    1
    39    35    36   ar
    40    42    43   ar
    41    43    44   ar
    42    44    39   ar
    43    36    32   ar
    44    31    26    1
    45     6     1   ar
    46    17     7   ar
    47    24    19   ar
    48    15     9    1
    49    38    45    1
    50    38    46    1
    51     8    18    1
    52    36    37    1
@<TRIPOS>MOLECULE
*****
 46 52 0 0 0
SMALL
GASTEIGER

@<TRIPOS>ATOM
      1 C         140.2264  143.3913  162.0837 C.ar    1  UNL1       -0.0061
      2 C         141.3865  143.9949  162.8184 C.ar    1  UNL1       -0.0029
      3 C         141.7208  143.5292  164.2045 C.ar    1  UNL1        0.0011
      4 C         140.8950  142.4598  164.8559 C.ar    1  UNL1        0.0156
      5 C         139.7349  141.8561  164.1212 C.ar    1  UNL1        0.0011
      6 C         139.4006  142.3218  162.7351 C.ar    1  UNL1       -0.0029
      7 C         141.2293  141.9940  166.2421 C.ar    1  UNL1        0.0565
      8 N         140.5404  142.6062  167.4255 N.ar    1  UNL1       -0.3530
      9 C         140.8747  142.1405  168.8117 C.ar    1  UNL1        0.0628
     10 C         140.1859  142.7527  169.9951 C.ar    1  UNL1        0.0378
     11 C         140.5202  142.2869  171.3812 C.ar    1  UNL1        0.1037
     12 N         141.5434  141.2090  171.5838 N.ar    1  UNL1       -0.2062
     13 C         142.2323  140.5968  170.4004 C.ar    1  UNL1        0.2806
     14 O         143.2555  139.5188  170.6030 O.2     1  UNL1       -0.2651
     15 C         141.8979  141.0625  169.0143 C.ar    1  UNL1        0.0735
     16 C         142.5868  140.4503  167.8308 C.ar    1  UNL1        0.0077
     17 C         142.2525  140.9161  166.4447 C.ar    1  UNL1        0.0158
     18 H         139.8689  143.3137  167.2925 H       1  UNL1        0.1659
     19 C         142.9414  140.3038  165.2611 C.ar    1  UNL1        0.0014
     20 C         144.2430  140.8695  164.7756 C.ar    1  UNL1        0.0000
     21 C         144.9319  140.2574  163.5921 C.ar    1  UNL1        0.0000
     22 C         144.3191  139.0795  162.8942 C.ar    1  UNL1        0.0000
     23 C         143.0175  138.5139  163.3797 C.ar    1  UNL1        0.0000
     24 C         142.3286  139.1260  164.5632 C.ar    1  UNL1        0.0000
     25 C         139.8921  143.8570  160.6975 C.3     1  UNL1        0.0991
     26 C         142.8187  143.2129  157.3404 C.3     1  UNL1        0.0613
     27 C         142.4380  144.6058  157.7466 C.3     1  UNL1        0.0249
     28 C         141.4624  144.8204  158.8657 C.3     1  UNL1        0.0728
     29 N         140.8676  143.6423  159.5785 N.3     1  UNL1       -0.2689
     30 C         141.2483  142.2494  159.1723 C.3     1  UNL1        0.0728
     31 C         142.2238  142.0347  158.0532 C.3     1  UNL1        0.0249
     32 C         145.8619  142.6820  154.9906 C.ar    1  UNL1        0.1644
     33 N         144.7287  142.6535  154.0081 N.ar    1  UNL1       -0.1293
     34 N         143.4508  142.8489  154.7688 N.ar    1  UNL1       -0.1336
     35 C         143.7941  142.9982  156.2214 C.ar    1  UNL1        0.1396
     36 N         145.2843  142.8950  156.3584 N.ar    1  UNL1       -0.3245
     37 H         145.7938  142.9563  157.1986 H       1  UNL1        0.1686
     38 N         151.6831  142.0541  153.6790 N.pl3   1  UNL1       -0.3426
     39 C         150.2278  142.2111  154.0069 C.ar    1  UNL1        0.1254
     40 C         149.6925  141.6945  155.3095 C.ar    1  UNL1        0.0340
     41 C         148.2372  141.8515  155.6373 C.ar    1  UNL1        0.0075
     42 C         147.3172  142.5250  154.6627 C.ar    1  UNL1        0.0550
     43 C         147.8525  143.0415  153.3601 C.ar    1  UNL1        0.1033
     44 N         149.3078  142.8845  153.0322 N.ar    1  UNL1       -0.2295
     45 H         152.2869  141.6120  154.3188 H       1  UNL1        0.1437
     46 H         152.0344  142.3931  152.8241 H       1  UNL1        0.1437
@<TRIPOS>BOND
     1    38    39    1
     2    39    40   ar
     3    40    41   ar
     4    41    42   ar
     5    42    32    1
     6    32    33   ar
     7    33    34   ar
     8    34    35   ar
     9    35    26    1
    10    26    27    1
    11    27    28    1
    12    28    29    1
    13    29    25    1
    14    25     1    1
    15     1     2   ar
    16     2     3   ar
    17     3     4   ar
    18     4     7    1
    19     7     8   ar
    20     8     9   ar
    21     9    10   ar
    22    10    11   ar
    23    11    12   ar
    24    12    13   ar
    25    13    14    2
    26    13    15   ar
    27    15    16   ar
    28    16    17   ar
    29    17    19    1
    30    19    20   ar
    31    20    21   ar
    32    21    22   ar
    33    22    23   ar
    34    23    24   ar
    35     4     5   ar
    36     5     6   ar
    37    29    30    1
    38    30    31    1
    39    35    36   ar
    40    42    43   ar
    41    43    44   ar
    42    44    39   ar
    43    36    32   ar
    44    31    26    1
    45     6     1   ar
    46    17     7   ar
    47    24    19   ar
    48    15     9    1
    49    38    45    1
    50    38    46    1
    51     8    18    1
    52    36    37    1
@<TRIPOS>MOLECULE
*****
 46 52 0 0 0
SMALL
GASTEIGER

@<TRIPOS>ATOM
      1 C         140.0068  139.2184  162.1446 C.ar    1  UNL1       -0.0061
      2 C         141.3044  139.7454  162.6818 C.ar    1  UNL1       -0.0029
      3 C         141.3537  140.3684  164.0454 C.ar    1  UNL1        0.0011
      4 C         140.1055  140.4644  164.8718 C.ar    1  UNL1        0.0156
      5 C         138.8080  139.9374  164.3345 C.ar    1  UNL1        0.0011
      6 C         138.7587  139.3144  162.9709 C.ar    1  UNL1       -0.0029
      7 C         140.1549  141.0874  166.2354 C.ar    1  UNL1        0.0565
      8 N         140.3994  140.2314  167.4426 N.ar    1  UNL1       -0.3530
      9 C         140.4488  140.8544  168.8063 C.ar    1  UNL1        0.0628
     10 C         140.6932  139.9984  170.0135 C.ar    1  UNL1        0.0378
     11 C         140.7426  140.6215  171.3771 C.ar    1  UNL1        0.1037
     12 N         140.5476  142.1005  171.5334 N.ar    1  UNL1       -0.2062
     13 C         140.3031  142.9565  170.3262 C.ar    1  UNL1        0.2806
     14 O         140.1080  144.4355  170.4825 O.2     1  UNL1       -0.2651
     15 C         140.2537  142.3335  168.9626 C.ar    1  UNL1        0.0735
     16 C         140.0092  143.1895  167.7553 C.ar    1  UNL1        0.0077
     17 C         139.9598  142.5664  166.3917 C.ar    1  UNL1        0.0158
     18 H         140.5274  139.2607  167.3400 H       1  UNL1        0.1659
     19 C         139.7154  143.4224  165.1844 C.ar    1  UNL1        0.0014
     20 C         138.3200  143.6066  164.6657 C.ar    1  UNL1        0.0000
     21 C         138.0755  144.4626  163.4585 C.ar    1  UNL1        0.0000
     22 C         139.2264  145.1343  162.7699 C.ar    1  UNL1        0.0000
     23 C         140.6217  144.9501  163.2885 C.ar    1  UNL1        0.0000
     24 C         140.8662  144.0941  164.4958 C.ar    1  UNL1        0.0000
     25 C         139.9574  138.5954  160.7809 C.3     1  UNL1        0.0991
     26 C         139.9218  141.2048  157.1149 C.3     1  UNL1        0.0613
     27 C         141.1986  140.5566  157.5617 C.3     1  UNL1        0.0249
     28 C         141.2104  139.6867  158.7838 C.3     1  UNL1        0.0728
     29 N         139.9455  139.4652  159.5590 N.3     1  UNL1       -0.2689
     30 C         138.6688  140.1134  159.1122 C.3     1  UNL1        0.0728
     31 C         138.6569  140.9832  157.8902 C.3     1  UNL1        0.0249
     32 C         140.0826  144.0049  154.4319 C.ar    1  UNL1        0.1644
     33 N         139.7005  142.8214  153.5931 N.ar    1  UNL1       -0.1293
     34 N         139.5938  141.6284  154.4962 N.ar    1  UNL1       -0.1336
     35 C         139.9099  142.0746  155.8930 C.ar    1  UNL1        0.1396
     36 N         140.2120  143.5433  155.8532 N.ar    1  UNL1       -0.3245
     37 H         140.4529  144.1056  156.6246 H       1  UNL1        0.1686
     38 N         140.9425  149.6023  152.4493 N.pl3   1  UNL1       -0.3426
     39 C         140.7275  148.2029  152.9450 C.ar    1  UNL1        0.1254
     40 C         139.9452  147.9645  154.2025 C.ar    1  UNL1        0.0340
     41 C         139.7303  146.5652  154.6980 C.ar    1  UNL1        0.0075
     42 C         140.2976  145.4042  153.9362 C.ar    1  UNL1        0.0550
     43 C         141.0799  145.6426  152.6788 C.ar    1  UNL1        0.1033
     44 N         141.2948  147.0420  152.1832 N.ar    1  UNL1       -0.2295
     45 H         140.5701  150.3642  152.9493 H       1  UNL1        0.1437
     46 H         141.4559  149.7587  151.6240 H       1  UNL1        0.1437
@<TRIPOS>BOND
     1    38    39    1
     2    39    40   ar
     3    40    41   ar
     4    41    42   ar
     5    42    32    1
     6    32    33   ar
     7    33    34   ar
     8    34    35   ar
     9    35    26    1
    10    26    27    1
    11    27    28    1
    12    28    29    1
    13    29    25    1
    14    25     1    1
    15     1     2   ar
    16     2     3   ar
    17     3     4   ar
    18     4     7    1
    19     7     8   ar
    20     8     9   ar
    21     9    10   ar
    22    10    11   ar
    23    11    12   ar
    24    12    13   ar
    25    13    14    2
    26    13    15   ar
    27    15    16   ar
    28    16    17   ar
    29    17    19    1
    30    19    20   ar
    31    20    21   ar
    32    21    22   ar
    33    22    23   ar
    34    23    24   ar
    35     4     5   ar
    36     5     6   ar
    37    29    30    1
    38    30    31    1
    39    35    36   ar
    40    42    43   ar
    41    43    44   ar
    42    44    39   ar
    43    36    32   ar
    44    31    26    1
    45     6     1   ar
    46    17     7   ar
    47    24    19   ar
    48    15     9    1
    49    38    45    1
    50    38    46    1
    51     8    18    1
    52    36    37    1
@<TRIPOS>MOLECULE
*****
 46 52 0 0 0
SMALL
GASTEIGER

@<TRIPOS>ATOM
      1 C         139.1324  142.0204  161.7603 C.ar    1  UNL1       -0.0061
      2 C         139.3782  140.7766  162.5618 C.ar    1  UNL1       -0.0029
      3 C         140.0340  140.8690  163.9077 C.ar    1  UNL1        0.0011
      4 C         140.4441  142.2052  164.4520 C.ar    1  UNL1        0.0156
      5 C         140.1983  143.4491  163.6505 C.ar    1  UNL1        0.0011
      6 C         139.5425  143.3566  162.3046 C.ar    1  UNL1       -0.0029
      7 C         141.1000  142.2976  165.7979 C.ar    1  UNL1        0.0565
      8 N         140.2599  142.3553  167.0392 N.ar    1  UNL1       -0.3530
      9 C         140.9158  142.4476  168.3851 C.ar    1  UNL1        0.0628
     10 C         140.0758  142.5053  169.6264 C.ar    1  UNL1        0.0378
     11 C         140.7317  142.5977  170.9722 C.ar    1  UNL1        0.1037
     12 N         142.2276  142.6324  171.0767 N.ar    1  UNL1       -0.2062
     13 C         143.0677  142.5748  169.8353 C.ar    1  UNL1        0.2806
     14 O         144.5636  142.6095  169.9398 O.2     1  UNL1       -0.2651
     15 C         142.4118  142.4824  168.4896 C.ar    1  UNL1        0.0735
     16 C         143.2518  142.4248  167.2481 C.ar    1  UNL1        0.0077
     17 C         142.5959  142.3324  165.9023 C.ar    1  UNL1        0.0158
     18 H         139.2781  142.3325  166.9706 H       1  UNL1        0.1659
     19 C         143.4360  142.2747  164.6609 C.ar    1  UNL1        0.0014
     20 C         143.9878  140.9622  164.1891 C.ar    1  UNL1        0.0000
     21 C         144.8278  140.9045  162.9477 C.ar    1  UNL1        0.0000
     22 C         145.1160  142.1594  162.1782 C.ar    1  UNL1        0.0000
     23 C         144.5642  143.4719  162.6501 C.ar    1  UNL1        0.0000
     24 C         143.7242  143.5296  163.8914 C.ar    1  UNL1        0.0000
     25 C         138.4765  141.9280  160.4144 C.3     1  UNL1        0.0991
     26 C         139.8375  138.8217  157.4566 C.3     1  UNL1        0.0613
     27 C         139.6404  140.2418  157.0156 C.3     1  UNL1        0.0249
     28 C         139.1867  141.2773  158.0016 C.3     1  UNL1        0.0728
     29 N         138.9302  140.8926  159.4285 N.3     1  UNL1       -0.2689
     30 C         139.1272  139.4725  159.8695 C.3     1  UNL1        0.0728
     31 C         139.5809  138.4371  158.8836 C.3     1  UNL1        0.0249
     32 C         141.3318  135.8177  155.5053 C.ar    1  UNL1        0.1644
     33 N         140.6469  136.5682  154.4018 N.ar    1  UNL1       -0.1293
     34 N         140.0038  137.7849  154.9985 N.ar    1  UNL1       -0.1336
     35 C         140.2912  137.7863  156.4707 C.ar    1  UNL1        0.1396
     36 N         141.1119  136.5705  156.7839 N.ar    1  UNL1       -0.3245
     37 H         141.4474  136.3120  157.6727 H       1  UNL1        0.1686
     38 N         144.4102  130.7021  154.9092 N.pl3   1  UNL1       -0.3426
     39 C         143.6406  131.9810  155.0582 C.ar    1  UNL1        0.1254
     40 C         142.7388  132.4468  153.9536 C.ar    1  UNL1        0.0340
     41 C         141.9693  133.7257  154.1027 C.ar    1  UNL1        0.0075
     42 C         142.1014  134.5388  155.3563 C.ar    1  UNL1        0.0550
     43 C         143.0031  134.0730  156.4608 C.ar    1  UNL1        0.1033
     44 N         143.7727  132.7941  156.3117 N.ar    1  UNL1       -0.2295
     45 H         144.3235  130.1685  154.0864 H       1  UNL1        0.1437
     46 H         145.0020  130.3964  155.6341 H       1  UNL1        0.1437
@<TRIPOS>BOND
     1    38    39    1
     2    39    40   ar
     3    40    41   ar
     4    41    42   ar
     5    42    32    1
     6    32    33   ar
     7    33    34   ar
     8    34    35   ar
     9    35    26    1
    10    26    27    1
    11    27    28    1
    12    28    29    1
    13    29    25    1
    14    25     1    1
    15     1     2   ar
    16     2     3   ar
    17     3     4   ar
    18     4     7    1
    19     7     8   ar
    20     8     9   ar
    21     9    10   ar
    22    10    11   ar
    23    11    12   ar
    24    12    13   ar
    25    13    14    2
    26    13    15   ar
    27    15    16   ar
    28    16    17   ar
    29    17    19    1
    30    19    20   ar
    31    20    21   ar
    32    21    22   ar
    33    22    23   ar
    34    23    24   ar
    35     4     5   ar
    36     5     6   ar
    37    29    30    1
    38    30    31    1
    39    35    36   ar
    40    42    43   ar
    41    43    44   ar
    42    44    39   ar
    43    36    32   ar
    44    31    26    1
    45     6     1   ar
    46    17     7   ar
    47    24    19   ar
    48    15     9    1
    49    38    45    1
    50    38    46    1
    51     8    18    1
    52    36    37    1
@<TRIPOS>MOLECULE
*****
 46 52 0 0 0
SMALL
GASTEIGER

@<TRIPOS>ATOM
      1 C         139.0792  142.7098  157.8642 C.ar    1  UNL1       -0.0061
      2 C         140.0806  143.7200  158.3404 C.ar    1  UNL1       -0.0029
      3 C         140.2286  145.0268  157.6191 C.ar    1  UNL1        0.0011
      4 C         139.3752  145.3235  156.4217 C.ar    1  UNL1        0.0156
      5 C         138.3738  144.3133  155.9456 C.ar    1  UNL1        0.0011
      6 C         138.2258  143.0065  156.6669 C.ar    1  UNL1       -0.0029
      7 C         139.5232  146.6304  155.7005 C.ar    1  UNL1        0.0565
      8 N         138.8331  147.8564  156.2205 N.ar    1  UNL1       -0.3530
      9 C         138.9811  149.1633  155.4992 C.ar    1  UNL1        0.0628
     10 C         138.2909  150.3893  156.0193 C.ar    1  UNL1        0.0378
     11 C         138.4390  151.6961  155.2980 C.ar    1  UNL1        0.1037
     12 N         139.2772  151.7769  154.0567 N.ar    1  UNL1       -0.2062
     13 C         139.9674  150.5509  153.5367 C.ar    1  UNL1        0.2806
     14 O         140.8056  150.6317  152.2954 O.2     1  UNL1       -0.2651
     15 C         139.8193  149.2441  154.2579 C.ar    1  UNL1        0.0735
     16 C         140.5095  148.0180  153.7379 C.ar    1  UNL1        0.0077
     17 C         140.3615  146.7112  154.4592 C.ar    1  UNL1        0.0158
     18 H         138.2829  147.8033  157.0352 H       1  UNL1        0.1659
     19 C         141.0517  145.4851  153.9391 C.ar    1  UNL1        0.0014
     20 C         142.4083  145.1110  154.4584 C.ar    1  UNL1        0.0000
     21 C         143.0985  143.8849  153.9384 C.ar    1  UNL1        0.0000
     22 C         142.4321  143.0330  152.8992 C.ar    1  UNL1        0.0000
     23 C         141.0755  143.4071  152.3799 C.ar    1  UNL1        0.0000
     24 C         140.3853  144.6331  152.8999 C.ar    1  UNL1        0.0000
     25 C         138.9312  141.4029  158.5855 C.3     1  UNL1        0.0991
     26 C         139.4583  141.2251  163.0510 C.3     1  UNL1        0.0613
     27 C         140.4123  140.4940  162.1535 C.3     1  UNL1        0.0249
     28 C         140.2365  140.5533  160.6649 C.3     1  UNL1        0.0728
     29 N         139.1069  141.3436  160.0740 N.3     1  UNL1       -0.2689
     30 C         138.1530  142.0747  160.9715 C.3     1  UNL1        0.0728
     31 C         138.3286  142.0154  162.4600 C.3     1  UNL1        0.0249
     32 C         140.4309  141.6072  166.7890 C.ar    1  UNL1        0.1644
     33 N         139.3779  140.5420  166.8710 N.ar    1  UNL1       -0.1293
     34 N         138.8854  140.2692  165.4806 N.ar    1  UNL1       -0.1336
     35 C         139.6340  141.1658  164.5394 C.ar    1  UNL1        0.1396
     36 N         140.5892  141.9927  165.3481 N.ar    1  UNL1       -0.3245
     37 H         141.2108  142.6696  164.9951 H       1  UNL1        0.1686
     38 N         143.4752  143.9198  171.4134 N.pl3   1  UNL1       -0.3426
     39 C         142.7141  143.3417  170.2573 C.ar    1  UNL1        0.1254
     40 C         143.4144  142.4650  169.2616 C.ar    1  UNL1        0.0340
     41 C         142.6532  141.8869  168.1055 C.ar    1  UNL1        0.0075
     42 C         141.1920  142.1853  167.9451 C.ar    1  UNL1        0.0550
     43 C         140.4918  143.0619  168.9408 C.ar    1  UNL1        0.1033
     44 N         141.2529  143.6401  170.0969 N.ar    1  UNL1       -0.2295
     45 H         144.4343  143.7240  171.5187 H       1  UNL1        0.1437
     46 H         143.0157  144.4952  172.0669 H       1  UNL1        0.1437
@<TRIPOS>BOND
     1    38    39    1
     2    39    40   ar
     3    40    41   ar
     4    41    42   ar
     5    42    32    1
     6    32    33   ar
     7    33    34   ar
     8    34    35   ar
     9    35    26    1
    10    26    27    1
    11    27    28    1
    12    28    29    1
    13    29    25    1
    14    25     1    1
    15     1     2   ar
    16     2     3   ar
    17     3     4   ar
    18     4     7    1
    19     7     8   ar
    20     8     9   ar
    21     9    10   ar
    22    10    11   ar
    23    11    12   ar
    24    12    13   ar
    25    13    14    2
    26    13    15   ar
    27    15    16   ar
    28    16    17   ar
    29    17    19    1
    30    19    20   ar
    31    20    21   ar
    32    21    22   ar
    33    22    23   ar
    34    23    24   ar
    35     4     5   ar
    36     5     6   ar
    37    29    30    1
    38    30    31    1
    39    35    36   ar
    40    42    43   ar
    41    43    44   ar
    42    44    39   ar
    43    36    32   ar
    44    31    26    1
    45     6     1   ar
    46    17     7   ar
    47    24    19   ar
    48    15     9    1
    49    38    45    1
    50    38    46    1
    51     8    18    1
    52    36    37    1
