@<TRIPOS>MOLECULE
*****
 31 34 0 0 0
SMALL
GASTEIGER

@<TRIPOS>ATOM
      1 N         141.4591  141.5672  168.1506 N.3     1  UNL1       -0.2656
      2 C         140.9858  142.1992  169.4260 C.3     1  UNL1        0.1584
      3 C         141.1652  141.4808  170.7306 C.2     1  UNL1        0.2389
      4 O         140.6919  142.1128  172.0060 O.2     1  UNL1       -0.2736
      5 N         141.8177  140.1305  170.7597 N.am    1  UNL1       -0.3019
      6 C         142.2909  139.4986  169.4842 C.3     1  UNL1        0.1057
      7 C         142.1116  140.2169  168.1797 C.3     1  UNL1        0.0818
      8 H         141.9354  139.6591  171.6159 H       1  UNL1        0.1495
      9 N         140.9213  143.7222  164.2370 N.pl3   1  UNL1       -0.2784
     10 C         142.2996  143.3932  164.7287 C.3     1  UNL1        0.0950
     11 C         142.4788  142.6749  166.0332 C.3     1  UNL1        0.0375
     12 C         141.2798  142.2856  166.8460 C.3     1  UNL1        0.0614
     13 C         139.9014  142.6147  166.3543 C.3     1  UNL1        0.0375
     14 C         139.7222  143.3330  165.0498 C.3     1  UNL1        0.0950
     15 N         141.7689  145.5703  159.3638 N.pl3   1  UNL1       -0.3277
     16 C         141.1315  145.2900  160.6925 C.ar    1  UNL1        0.2131
     17 N         139.8004  145.8020  161.1573 N.ar    1  UNL1       -0.1121
     18 N         139.5596  145.2770  162.5417 N.ar    1  UNL1       -0.1117
     19 C         140.7419  144.4406  162.9324 C.ar    1  UNL1        0.2194
     20 N         141.7134  144.4487  161.7895 N.ar    1  UNL1       -0.2979
     21 H         141.3060  146.1377  158.7057 H       1  UNL1        0.1451
     22 H         142.6500  145.1869  159.1499 H       1  UNL1        0.1451
     23 H         142.5807  143.9834  161.7639 H       1  UNL1        0.1713
     24 C         142.5849  139.5850  166.9043 C.3     1  UNL1        0.0440
     25 C         141.5891  139.0592  165.9133 C.ar    1  UNL1       -0.0207
     26 C         142.0518  138.5684  164.5734 C.ar    1  UNL1       -0.0034
     27 C         141.0561  138.0427  163.5825 C.ar    1  UNL1        0.0111
     28 C         139.5976  138.0077  163.9313 C.ar    1  UNL1        0.0577
     29 CL        138.6018  137.4820  162.9403 Cl      1  UNL1       -0.0822
     30 C         139.1349  138.4985  165.2711 C.ar    1  UNL1        0.0111
     31 C         140.1307  139.0243  166.2621 C.ar    1  UNL1       -0.0034
@<TRIPOS>BOND
     1    15    16    1
     2    16    17   ar
     3    17    18   ar
     4    18    19   ar
     5    19     9    1
     6     9    10    1
     7    10    11    1
     8    11    12    1
     9    12     1    1
    10     1     2    1
    11     2     3    1
    12     3     4    2
    13     3     5   am
    14     5     6    1
    15     6     7    1
    16     7    24    1
    17    24    25    1
    18    25    26   ar
    19    26    27   ar
    20    27    28   ar
    21    28    29    1
    22    28    30   ar
    23    30    31   ar
    24    12    13    1
    25    13    14    1
    26    19    20   ar
    27    20    16   ar
    28    14     9    1
    29     7     1    1
    30    31    25   ar
    31    15    21    1
    32    15    22    1
    33     5     8    1
    34    20    23    1
@<TRIPOS>MOLECULE
*****
 31 34 0 0 0
SMALL
GASTEIGER

@<TRIPOS>ATOM
      1 N         139.4182  139.2103  162.0835 N.3     1  UNL1       -0.2656
      2 C         138.2952  139.7567  161.2527 C.3     1  UNL1        0.1584
      3 C         138.3287  139.6145  159.7598 C.2     1  UNL1        0.2389
      4 O         137.2057  140.1609  158.9290 O.2     1  UNL1       -0.2736
      5 N         139.4852  138.9259  159.0978 N.am    1  UNL1       -0.3019
      6 C         140.6082  138.3794  159.9287 C.3     1  UNL1        0.1057
      7 C         140.5747  138.5217  161.4215 C.3     1  UNL1        0.0818
      8 H         139.5072  138.8325  158.1179 H       1  UNL1        0.1495
      9 N         139.3178  139.6370  166.5621 N.pl3   1  UNL1       -0.2784
     10 C         139.8768  140.7421  165.7158 C.3     1  UNL1        0.0950
     11 C         139.9102  140.5999  164.2230 C.3     1  UNL1        0.0375
     12 C         139.3847  139.3525  163.5764 C.3     1  UNL1        0.0614
     13 C         138.8257  138.2475  164.4227 C.3     1  UNL1        0.0375
     14 C         138.7923  138.3897  165.9156 C.3     1  UNL1        0.0950
     15 N         140.7449  140.6541  171.5431 N.pl3   1  UNL1       -0.3277
     16 C         139.9403  140.2468  170.3445 C.ar    1  UNL1        0.2131
     17 N         138.5252  139.7494  170.3601 N.ar    1  UNL1       -0.1121
     18 N         138.1198  139.4605  168.9452 N.ar    1  UNL1       -0.1117
     19 C         139.2843  139.7793  168.0550 C.ar    1  UNL1        0.2194
     20 N         140.4094  140.2652  168.9199 N.ar    1  UNL1       -0.2979
     21 H         140.3471  140.6066  172.4424 H       1  UNL1        0.1451
     22 H         141.6709  140.9690  171.4305 H       1  UNL1        0.1451
     23 H         141.2995  140.5468  168.6073 H       1  UNL1        0.1713
     24 C         141.6977  137.9753  162.2524 C.3     1  UNL1        0.0440
     25 C         142.8155  138.8758  162.6879 C.ar    1  UNL1       -0.0207
     26 C         143.4635  139.7989  161.6989 C.ar    1  UNL1       -0.0034
     27 C         144.5813  140.6995  162.1344 C.ar    1  UNL1        0.0111
     28 C         145.0509  140.6769  163.5588 C.ar    1  UNL1        0.0577
     29 CL        146.1687  141.5775  163.9943 Cl      1  UNL1       -0.0822
     30 C         144.4029  139.7539  164.5477 C.ar    1  UNL1        0.0111
     31 C         143.2851  138.8533  164.1122 C.ar    1  UNL1       -0.0034
@<TRIPOS>BOND
     1    15    16    1
     2    16    17   ar
     3    17    18   ar
     4    18    19   ar
     5    19     9    1
     6     9    10    1
     7    10    11    1
     8    11    12    1
     9    12     1    1
    10     1     2    1
    11     2     3    1
    12     3     4    2
    13     3     5   am
    14     5     6    1
    15     6     7    1
    16     7    24    1
    17    24    25    1
    18    25    26   ar
    19    26    27   ar
    20    27    28   ar
    21    28    29    1
    22    28    30   ar
    23    30    31   ar
    24    12    13    1
    25    13    14    1
    26    19    20   ar
    27    20    16   ar
    28    14     9    1
    29     7     1    1
    30    31    25   ar
    31    15    21    1
    32    15    22    1
    33     5     8    1
    34    20    23    1
@<TRIPOS>MOLECULE
*****
 31 34 0 0 0
SMALL
GASTEIGER

@<TRIPOS>ATOM
      1 N         140.8973  142.0031  167.8409 N.3     1  UNL1       -0.2656
      2 C         141.5014  142.7432  168.9973 C.3     1  UNL1        0.1584
      3 C         141.5931  142.0862  170.3427 C.2     1  UNL1        0.2389
      4 O         142.1973  142.8262  171.4991 O.2     1  UNL1       -0.2736
      5 N         141.0807  140.6891  170.5316 N.am    1  UNL1       -0.3019
      6 C         140.4765  139.9491  169.3751 C.3     1  UNL1        0.1057
      7 C         140.3848  140.6061  168.0298 C.3     1  UNL1        0.0818
      8 H         141.1409  140.2579  171.4146 H       1  UNL1        0.1495
      9 N         140.6222  143.9740  163.8048 N.pl3   1  UNL1       -0.2784
     10 C         141.8926  143.2949  164.2228 C.3     1  UNL1        0.0950
     11 C         141.9843  142.6380  165.5681 C.3     1  UNL1        0.0375
     12 C         140.8055  142.6601  166.4955 C.3     1  UNL1        0.0614
     13 C         139.5351  143.3391  166.0775 C.3     1  UNL1        0.0375
     14 C         139.4434  143.9961  164.7321 C.3     1  UNL1        0.0950
     15 N         141.8789  145.8061  159.0147 N.pl3   1  UNL1       -0.3277
     16 C         141.1080  145.4731  160.2576 C.ar    1  UNL1        0.2131
     17 N         139.6703  145.8108  160.5206 N.ar    1  UNL1       -0.1121
     18 N         139.3134  145.2903  161.8813 N.ar    1  UNL1       -0.1117
     19 C         140.5304  144.6310  162.4594 C.ar    1  UNL1        0.2194
     20 N         141.6396  144.7439  161.4559 N.ar    1  UNL1       -0.2979
     21 H         141.4400  146.2902  158.2782 H       1  UNL1        0.1451
     22 H         142.8236  145.5406  158.9353 H       1  UNL1        0.1451
     23 H         142.5556  144.3999  161.5646 H       1  UNL1        0.1713
     24 C         139.7807  139.8660  166.8733 C.3     1  UNL1        0.0440
     25 C         140.6496  139.4082  165.7396 C.ar    1  UNL1       -0.0207
     26 C         140.1334  139.4569  164.3320 C.ar    1  UNL1       -0.0034
     27 C         141.0023  138.9990  163.1982 C.ar    1  UNL1        0.0111
     28 C         142.3874  138.4925  163.4721 C.ar    1  UNL1        0.0577
     29 CL        143.2563  138.0347  162.3384 Cl      1  UNL1       -0.0822
     30 C         142.9036  138.4438  164.8796 C.ar    1  UNL1        0.0111
     31 C         142.0346  138.9017  166.0134 C.ar    1  UNL1       -0.0034
@<TRIPOS>BOND
     1    15    16    1
     2    16    17   ar
     3    17    18   ar
     4    18    19   ar
     5    19     9    1
     6     9    10    1
     7    10    11    1
     8    11    12    1
     9    12     1    1
    10     1     2    1
    11     2     3    1
    12     3     4    2
    13     3     5   am
    14     5     6    1
    15     6     7    1
    16     7    24    1
    17    24    25    1
    18    25    26   ar
    19    26    27   ar
    20    27    28   ar
    21    28    29    1
    22    28    30   ar
    23    30    31   ar
    24    12    13    1
    25    13    14    1
    26    19    20   ar
    27    20    16   ar
    28    14     9    1
    29     7     1    1
    30    31    25   ar
    31    15    21    1
    32    15    22    1
    33     5     8    1
    34    20    23    1
@<TRIPOS>MOLECULE
*****
 31 34 0 0 0
SMALL
GASTEIGER

@<TRIPOS>ATOM
      1 N         141.5558  139.5718  166.9448 N.3     1  UNL1       -0.2656
      2 C         142.6325  139.4148  167.9772 C.3     1  UNL1        0.1584
      3 C         142.3091  139.5925  169.4312 C.2     1  UNL1        0.2389
      4 O         143.3858  139.4355  170.4636 O.2     1  UNL1       -0.2736
      5 N         140.9090  139.9274  169.8526 N.am    1  UNL1       -0.3019
      6 C         139.8323  140.0845  168.8201 C.3     1  UNL1        0.1057
      7 C         140.1557  139.9067  167.3662 C.3     1  UNL1        0.0818
      8 H         140.6968  140.0441  170.8068 H       1  UNL1        0.1495
      9 N         142.5259  139.0386  162.5831 N.pl3   1  UNL1       -0.2784
     10 C         142.8664  140.3250  163.2753 C.3     1  UNL1        0.0950
     11 C         142.5430  140.5028  164.7291 C.3     1  UNL1        0.0375
     12 C         141.8792  139.3941  165.4908 C.3     1  UNL1        0.0614
     13 C         141.5388  138.1076  164.7986 C.3     1  UNL1        0.0375
     14 C         141.8622  137.9299  163.3448 C.3     1  UNL1        0.0950
     15 N         142.5642  137.1924  157.6362 N.pl3   1  UNL1       -0.3277
     16 C         142.8669  138.0122  158.8553 C.ar    1  UNL1        0.2131
     17 N         143.8271  139.1624  158.9283 N.ar    1  UNL1       -0.1121
     18 N         143.8162  139.6869  160.3335 N.ar    1  UNL1       -0.1117
     19 C         142.8493  138.8608  161.1291 C.ar    1  UNL1        0.2194
     20 N         142.2627  137.8259  160.2155 N.ar    1  UNL1       -0.2979
     21 H         143.0144  137.3928  156.7840 H       1  UNL1        0.1451
     22 H         141.9153  136.4538  157.6884 H       1  UNL1        0.1451
     23 H         141.5978  137.1440  160.4649 H       1  UNL1        0.1713
     24 C         139.0790  140.0637  166.3336 C.3     1  UNL1        0.0440
     25 C         138.9933  141.3244  165.5252 C.ar    1  UNL1       -0.0207
     26 C         138.1231  141.3747  164.3044 C.ar    1  UNL1       -0.0034
     27 C         138.0374  142.6354  163.4960 C.ar    1  UNL1        0.0111
     28 C         138.8219  143.8456  163.9084 C.ar    1  UNL1        0.0577
     29 CL        138.7361  145.1062  163.1000 Cl      1  UNL1       -0.0822
     30 C         139.6920  143.7952  165.1292 C.ar    1  UNL1        0.0111
     31 C         139.7777  142.5345  165.9376 C.ar    1  UNL1       -0.0034
@<TRIPOS>BOND
     1    15    16    1
     2    16    17   ar
     3    17    18   ar
     4    18    19   ar
     5    19     9    1
     6     9    10    1
     7    10    11    1
     8    11    12    1
     9    12     1    1
    10     1     2    1
    11     2     3    1
    12     3     4    2
    13     3     5   am
    14     5     6    1
    15     6     7    1
    16     7    24    1
    17    24    25    1
    18    25    26   ar
    19    26    27   ar
    20    27    28   ar
    21    28    29    1
    22    28    30   ar
    23    30    31   ar
    24    12    13    1
    25    13    14    1
    26    19    20   ar
    27    20    16   ar
    28    14     9    1
    29     7     1    1
    30    31    25   ar
    31    15    21    1
    32    15    22    1
    33     5     8    1
    34    20    23    1
@<TRIPOS>MOLECULE
*****
 31 34 0 0 0
SMALL
GASTEIGER

@<TRIPOS>ATOM
      1 N         139.4393  140.9508  165.7713 N.3     1  UNL1       -0.2656
      2 C         138.3629  139.9063  165.7794 C.3     1  UNL1        0.1584
      3 C         138.0841  139.1262  167.0300 C.2     1  UNL1        0.2389
      4 O         137.0076  138.0817  167.0382 O.2     1  UNL1       -0.2736
      5 N         138.8819  139.3908  168.2724 N.am    1  UNL1       -0.3019
      6 C         139.9584  140.4354  168.2642 C.3     1  UNL1        0.1057
      7 C         140.2371  141.2153  167.0137 C.3     1  UNL1        0.0818
      8 H         138.6989  138.8789  169.0932 H       1  UNL1        0.1495
      9 N         140.2756  143.2909  162.0197 N.pl3   1  UNL1       -0.2784
     10 C         139.5392  143.9348  163.1568 C.3     1  UNL1        0.0950
     11 C         139.2605  143.1548  164.4073 C.3     1  UNL1        0.0375
     12 C         139.7181  141.7308  164.5207 C.3     1  UNL1        0.0614
     13 C         140.4545  141.0869  163.3836 C.3     1  UNL1        0.0375
     14 C         140.7332  141.8669  162.1331 C.3     1  UNL1        0.0950
     15 N         142.6725  145.1909  157.7155 N.pl3   1  UNL1       -0.3277
     16 C         141.6560  144.9443  158.7907 C.ar    1  UNL1        0.2131
     17 N         140.3104  145.5982  158.8986 N.ar    1  UNL1       -0.1121
     18 N         139.6295  145.0584  160.1213 N.ar    1  UNL1       -0.1117
     19 C         140.5543  144.0709  160.7691 C.ar    1  UNL1        0.2194
     20 N         141.8068  144.0004  159.9467 N.ar    1  UNL1       -0.2979
     21 H         142.4804  145.8332  156.9945 H       1  UNL1        0.1451
     22 H         143.5317  144.7106  157.7308 H       1  UNL1        0.1451
     23 H         142.5902  143.4340  160.1329 H       1  UNL1        0.1713
     24 C         141.3137  142.2599  167.0055 C.3     1  UNL1        0.0440
     25 C         142.4877  142.1197  166.0825 C.ar    1  UNL1       -0.0207
     26 C         143.1035  140.7714  165.8517 C.ar    1  UNL1       -0.0034
     27 C         144.2775  140.6312  164.9287 C.ar    1  UNL1        0.0111
     28 C         144.8358  141.8392  164.2365 C.ar    1  UNL1        0.0577
     29 CL        146.0099  141.6990  163.3135 Cl      1  UNL1       -0.0822
     30 C         144.2201  143.1873  164.4673 C.ar    1  UNL1        0.0111
     31 C         143.0460  143.3276  165.3903 C.ar    1  UNL1       -0.0034
@<TRIPOS>BOND
     1    15    16    1
     2    16    17   ar
     3    17    18   ar
     4    18    19   ar
     5    19     9    1
     6     9    10    1
     7    10    11    1
     8    11    12    1
     9    12     1    1
    10     1     2    1
    11     2     3    1
    12     3     4    2
    13     3     5   am
    14     5     6    1
    15     6     7    1
    16     7    24    1
    17    24    25    1
    18    25    26   ar
    19    26    27   ar
    20    27    28   ar
    21    28    29    1
    22    28    30   ar
    23    30    31   ar
    24    12    13    1
    25    13    14    1
    26    19    20   ar
    27    20    16   ar
    28    14     9    1
    29     7     1    1
    30    31    25   ar
    31    15    21    1
    32    15    22    1
    33     5     8    1
    34    20    23    1
@<TRIPOS>MOLECULE
*****
 31 34 0 0 0
SMALL
GASTEIGER

@<TRIPOS>ATOM
      1 N         138.7077  139.7572  169.4687 N.3     1  UNL1       -0.2656
      2 C         137.7477  139.4374  170.5759 C.3     1  UNL1        0.1584
      3 C         136.5315  138.6046  170.2970 C.2     1  UNL1        0.2389
      4 O         135.5715  138.2848  171.4042 O.2     1  UNL1       -0.2736
      5 N         136.2755  138.0918  168.9108 N.am    1  UNL1       -0.3019
      6 C         137.2356  138.4117  167.8035 C.3     1  UNL1        0.1057
      7 C         138.4517  139.2444  168.0825 C.3     1  UNL1        0.0818
      8 H         135.4774  137.5453  168.7277 H       1  UNL1        0.1495
      9 N         142.3558  142.2554  170.3054 N.pl3   1  UNL1       -0.2784
     10 C         141.0115  142.9091  170.1815 C.3     1  UNL1        0.0950
     11 C         139.7955  142.0764  169.9026 C.3     1  UNL1        0.0375
     12 C         139.9238  140.5899  169.7476 C.3     1  UNL1        0.0614
     13 C         141.2681  139.9362  169.8714 C.3     1  UNL1        0.0375
     14 C         142.4841  140.7689  170.1503 C.3     1  UNL1        0.0950
     15 N         145.5341  146.0318  172.1811 N.pl3   1  UNL1       -0.3277
     16 C         145.0328  144.8239  171.4465 C.ar    1  UNL1        0.2131
     17 N         145.8538  143.9150  170.5804 N.ar    1  UNL1       -0.1121
     18 N         144.9509  142.8422  170.0476 N.ar    1  UNL1       -0.1117
     19 C         143.5719  143.0881  170.5843 C.ar    1  UNL1        0.2194
     20 N         143.6226  144.3128  171.4488 N.ar    1  UNL1       -0.2979
     21 H         146.4825  146.2884  172.1172 H       1  UNL1        0.1451
     22 H         144.9149  146.5679  172.7273 H       1  UNL1        0.1451
     23 H         142.8635  144.7112  171.9329 H       1  UNL1        0.1713
     24 C         139.4118  139.5643  166.9752 C.3     1  UNL1        0.0440
     25 C         138.9711  139.4552  165.5456 C.ar    1  UNL1       -0.0207
     26 C         138.2318  140.5896  164.9000 C.ar    1  UNL1       -0.0034
     27 C         137.7911  140.4805  163.4703 C.ar    1  UNL1        0.0111
     28 C         138.0897  139.2370  162.6863 C.ar    1  UNL1        0.0577
     29 CL        137.6491  139.1279  161.2566 Cl      1  UNL1       -0.0822
     30 C         138.8290  138.1027  163.3319 C.ar    1  UNL1        0.0111
     31 C         139.2697  138.2118  164.7615 C.ar    1  UNL1       -0.0034
@<TRIPOS>BOND
     1    15    16    1
     2    16    17   ar
     3    17    18   ar
     4    18    19   ar
     5    19     9    1
     6     9    10    1
     7    10    11    1
     8    11    12    1
     9    12     1    1
    10     1     2    1
    11     2     3    1
    12     3     4    2
    13     3     5   am
    14     5     6    1
    15     6     7    1
    16     7    24    1
    17    24    25    1
    18    25    26   ar
    19    26    27   ar
    20    27    28   ar
    21    28    29    1
    22    28    30   ar
    23    30    31   ar
    24    12    13    1
    25    13    14    1
    26    19    20   ar
    27    20    16   ar
    28    14     9    1
    29     7     1    1
    30    31    25   ar
    31    15    21    1
    32    15    22    1
    33     5     8    1
    34    20    23    1
@<TRIPOS>MOLECULE
*****
 31 34 0 0 0
SMALL
GASTEIGER

@<TRIPOS>ATOM
      1 N         142.1141  143.8385  160.9558 N.3     1  UNL1       -0.2656
      2 C         140.8794  144.6401  160.6676 C.3     1  UNL1        0.1584
      3 C         140.4069  145.6694  161.6512 C.2     1  UNL1        0.2389
      4 O         139.1723  146.4710  161.3630 O.2     1  UNL1       -0.2736
      5 N         141.1691  145.8971  162.9229 N.am    1  UNL1       -0.3019
      6 C         142.4039  145.0955  163.2110 C.3     1  UNL1        0.1057
      7 C         142.8763  144.0662  162.2275 C.3     1  UNL1        0.0818
      8 H         140.8591  146.5727  163.5684 H       1  UNL1        0.1495
      9 N         143.5315  140.7507  158.0052 N.pl3   1  UNL1       -0.2784
     10 C         143.9520  142.1824  157.8526 C.3     1  UNL1        0.0950
     11 C         143.4795  143.2116  158.8362 C.3     1  UNL1        0.0375
     12 C         142.5866  142.8092  159.9723 C.3     1  UNL1        0.0614
     13 C         142.1661  141.3774  160.1248 C.3     1  UNL1        0.0375
     14 C         142.6386  140.3482  159.1413 C.3     1  UNL1        0.0950
     15 N         143.8374  136.3597  155.0885 N.pl3   1  UNL1       -0.3277
     16 C         144.1446  137.7031  155.6810 C.ar    1  UNL1        0.2131
     17 N         145.3177  138.5718  155.3354 N.ar    1  UNL1       -0.1121
     18 N         145.2307  139.8191  156.1640 N.ar    1  UNL1       -0.1117
     19 C         144.0040  139.7213  157.0217 C.ar    1  UNL1        0.2194
     20 N         143.3328  138.4135  156.7232 N.ar    1  UNL1       -0.2979
     21 H         144.4338  135.9745  154.4065 H       1  UNL1        0.1451
     22 H         143.0393  135.8633  155.3815 H       1  UNL1        0.1451
     23 H         142.5047  138.0800  157.1384 H       1  UNL1        0.1713
     24 C         144.1110  143.2646  162.5156 C.3     1  UNL1        0.0440
     25 C         144.0224  142.0284  163.3606 C.ar    1  UNL1       -0.0207
     26 C         142.7566  141.7163  164.1026 C.ar    1  UNL1       -0.0034
     27 C         142.6680  140.4801  164.9476 C.ar    1  UNL1        0.0111
     28 C         143.8452  139.5561  165.0506 C.ar    1  UNL1        0.0577
     29 CL        143.7566  138.3199  165.8956 Cl      1  UNL1       -0.0822
     30 C         145.1108  139.8682  164.3086 C.ar    1  UNL1        0.0111
     31 C         145.1995  141.1044  163.4636 C.ar    1  UNL1       -0.0034
@<TRIPOS>BOND
     1    15    16    1
     2    16    17   ar
     3    17    18   ar
     4    18    19   ar
     5    19     9    1
     6     9    10    1
     7    10    11    1
     8    11    12    1
     9    12     1    1
    10     1     2    1
    11     2     3    1
    12     3     4    2
    13     3     5   am
    14     5     6    1
    15     6     7    1
    16     7    24    1
    17    24    25    1
    18    25    26   ar
    19    26    27   ar
    20    27    28   ar
    21    28    29    1
    22    28    30   ar
    23    30    31   ar
    24    12    13    1
    25    13    14    1
    26    19    20   ar
    27    20    16   ar
    28    14     9    1
    29     7     1    1
    30    31    25   ar
    31    15    21    1
    32    15    22    1
    33     5     8    1
    34    20    23    1
@<TRIPOS>MOLECULE
*****
 31 34 0 0 0
SMALL
GASTEIGER

@<TRIPOS>ATOM
      1 N         140.4137  139.3081  163.6697 N.3     1  UNL1       -0.2656
      2 C         139.0159  138.8445  163.3848 C.3     1  UNL1        0.1584
      3 C         138.6832  138.2392  162.0532 C.2     1  UNL1        0.2389
      4 O         137.2854  137.7756  161.7683 O.2     1  UNL1       -0.2736
      5 N         139.7483  138.0974  161.0067 N.am    1  UNL1       -0.3019
      6 C         141.1462  138.5610  161.2917 C.3     1  UNL1        0.1057
      7 C         141.4788  139.1663  162.6231 C.3     1  UNL1        0.0818
      8 H         139.5300  137.7001  160.1328 H       1  UNL1        0.1495
      9 N         141.4117  141.1241  167.6642 N.pl3   1  UNL1       -0.2784
     10 C         141.8744  139.7358  167.3349 C.3     1  UNL1        0.0950
     11 C         141.5417  139.1305  166.0034 C.3     1  UNL1        0.0375
     12 C         140.7463  139.9135  165.0012 C.3     1  UNL1        0.0614
     13 C         140.2837  141.3018  165.3306 C.3     1  UNL1        0.0375
     14 C         140.6164  141.9071  166.6620 C.3     1  UNL1        0.0950
     15 N         143.6436  144.1021  171.4100 N.pl3   1  UNL1       -0.3277
     16 C         142.7703  143.0983  170.7175 C.ar    1  UNL1        0.2131
     17 N         141.7423  142.2236  171.3720 N.ar    1  UNL1       -0.1121
     18 N         141.1084  141.3776  170.3079 N.ar    1  UNL1       -0.1117
     19 C         141.7444  141.7294  168.9957 C.ar    1  UNL1        0.2194
     20 N         142.7715  142.7929  169.2489 N.ar    1  UNL1       -0.2979
     21 H         143.5687  144.2316  172.3831 H       1  UNL1        0.1451
     22 H         144.2917  144.6316  170.8915 H       1  UNL1        0.1451
     23 H         143.3457  143.2161  168.5703 H       1  UNL1        0.1713
     24 C         142.8767  139.6299  162.9081 C.3     1  UNL1        0.0440
     25 C         143.1473  141.0828  163.1648 C.ar    1  UNL1       -0.0207
     26 C         144.0554  141.4896  164.2873 C.ar    1  UNL1       -0.0034
     27 C         144.3261  142.9425  164.5440 C.ar    1  UNL1        0.0111
     28 C         143.6886  143.9885  163.6782 C.ar    1  UNL1        0.0577
     29 CL        143.9593  145.4414  163.9349 Cl      1  UNL1       -0.0822
     30 C         142.7806  143.5817  162.5558 C.ar    1  UNL1        0.0111
     31 C         142.5100  142.1288  162.2991 C.ar    1  UNL1       -0.0034
@<TRIPOS>BOND
     1    15    16    1
     2    16    17   ar
     3    17    18   ar
     4    18    19   ar
     5    19     9    1
     6     9    10    1
     7    10    11    1
     8    11    12    1
     9    12     1    1
    10     1     2    1
    11     2     3    1
    12     3     4    2
    13     3     5   am
    14     5     6    1
    15     6     7    1
    16     7    24    1
    17    24    25    1
    18    25    26   ar
    19    26    27   ar
    20    27    28   ar
    21    28    29    1
    22    28    30   ar
    23    30    31   ar
    24    12    13    1
    25    13    14    1
    26    19    20   ar
    27    20    16   ar
    28    14     9    1
    29     7     1    1
    30    31    25   ar
    31    15    21    1
    32    15    22    1
    33     5     8    1
    34    20    23    1
@<TRIPOS>MOLECULE
*****
 31 34 0 0 0
SMALL
GASTEIGER

@<TRIPOS>ATOM
      1 N         142.7681  139.4247  162.5100 N.3     1  UNL1       -0.2656
      2 C         142.6209  138.1540  161.7267 C.3     1  UNL1        0.1584
      3 C         143.2069  138.0494  160.3498 C.2     1  UNL1        0.2389
      4 O         143.0597  136.7787  159.5666 O.2     1  UNL1       -0.2736
      5 N         143.9402  139.2156  159.7563 N.am    1  UNL1       -0.3019
      6 C         144.0874  140.4864  160.5396 C.3     1  UNL1        0.1057
      7 C         143.5014  140.5909  161.9164 C.3     1  UNL1        0.0818
      8 H         144.3248  139.1471  158.8526 H       1  UNL1        0.1495
      9 N         141.0100  139.7384  166.6404 N.pl3   1  UNL1       -0.2784
     10 C         140.1807  140.0973  165.4431 C.3     1  UNL1        0.0950
     11 C         140.7668  139.9927  164.0663 C.3     1  UNL1        0.0375
     12 C         142.1821  139.5293  163.8868 C.3     1  UNL1        0.0614
     13 C         143.0113  139.1704  165.0841 C.3     1  UNL1        0.0375
     14 C         142.4252  139.2750  166.4609 C.3     1  UNL1        0.0950
     15 N         140.5370  140.3493  171.8638 N.pl3   1  UNL1       -0.3277
     16 C         140.2065  140.1238  170.4182 C.ar    1  UNL1        0.2131
     17 N         138.8376  139.8839  169.8537 N.ar    1  UNL1       -0.1121
     18 N         138.9720  139.7104  168.3699 N.ar    1  UNL1       -0.1117
     19 C         140.4239  139.8430  168.0172 C.ar    1  UNL1        0.2194
     20 N         141.1869  140.0984  169.2832 N.ar    1  UNL1       -0.2979
     21 H         139.8202  140.3480  172.5387 H       1  UNL1        0.1451
     22 H         141.4707  140.4987  172.1378 H       1  UNL1        0.1451
     23 H         142.1602  140.2269  169.3563 H       1  UNL1        0.1713
     24 C         143.6486  141.8617  162.6998 C.3     1  UNL1        0.0440
     25 C         142.6743  142.9842  162.4981 C.ar    1  UNL1       -0.0207
     26 C         141.8950  143.5193  163.6628 C.ar    1  UNL1       -0.0034
     27 C         140.9207  144.6418  163.4610 C.ar    1  UNL1        0.0111
     28 C         140.7257  145.2292  162.0946 C.ar    1  UNL1        0.0577
     29 CL        139.7513  146.3517  161.8929 Cl      1  UNL1       -0.0822
     30 C         141.5049  144.6941  160.9300 C.ar    1  UNL1        0.0111
     31 C         142.4792  143.5716  161.1317 C.ar    1  UNL1       -0.0034
@<TRIPOS>BOND
     1    15    16    1
     2    16    17   ar
     3    17    18   ar
     4    18    19   ar
     5    19     9    1
     6     9    10    1
     7    10    11    1
     8    11    12    1
     9    12     1    1
    10     1     2    1
    11     2     3    1
    12     3     4    2
    13     3     5   am
    14     5     6    1
    15     6     7    1
    16     7    24    1
    17    24    25    1
    18    25    26   ar
    19    26    27   ar
    20    27    28   ar
    21    28    29    1
    22    28    30   ar
    23    30    31   ar
    24    12    13    1
    25    13    14    1
    26    19    20   ar
    27    20    16   ar
    28    14     9    1
    29     7     1    1
    30    31    25   ar
    31    15    21    1
    32    15    22    1
    33     5     8    1
    34    20    23    1
