@<TRIPOS>MOLECULE
*****
 39 43 0 0 0
SMALL
GASTEIGER

@<TRIPOS>ATOM
      1 C         142.7583  138.4887  158.2199 C.ar    1  UNL1        0.0655
      2 C         142.5647  137.7556  159.5142 C.ar    1  UNL1        0.0337
      3 C         143.0779  138.3454  160.7944 C.ar    1  UNL1        0.0862
      4 C         143.7848  139.6683  160.7802 C.ar    1  UNL1        0.1534
      5 C         143.9784  140.4015  159.4859 C.ar    1  UNL1        0.0539
      6 C         143.4651  139.8117  158.2058 C.ar    1  UNL1        0.0647
      7 C         143.1960  137.2478  155.9798 C.2     1  UNL1        0.2497
      8 O         144.2762  137.0780  155.9781 O.2     1  UNL1       -0.2698
      9 N         142.2450  137.8989  156.9398 N.am    1  UNL1       -0.2794
     10 H         141.2840  137.9391  156.7298 H       1  UNL1        0.1552
     11 C         142.8762  135.1977  154.4161 C.2     1  UNL1        0.0048
     12 C         142.6828  136.6579  154.6997 C.2     1  UNL1        0.0580
     13 N         143.6588  140.5448  156.9116 N.pl3   1  UNL1       -0.3036
     14 C         144.8028  140.7328  155.9599 C.3     1  UNL1        0.1085
     15 C         143.9325  141.5817  155.0813 C.3     1  UNL1        0.0973
     16 C         142.7885  141.3938  156.0331 C.3     1  UNL1        0.1085
     17 N         144.1260  142.3149  153.7871 N.3     1  UNL1       -0.2686
     18 C         144.5963  143.7394  153.7952 C.3     1  UNL1        0.0897
     19 C         143.8493  141.6239  152.4850 C.3     1  UNL1        0.0897
     20 N         142.8843  137.6122  162.0885 N.pl3   1  UNL1       -0.2801
     21 H         143.5355  136.9295  162.3697 H       1  UNL1        0.1552
     22 C         141.6985  137.9192  162.9544 C.ar    1  UNL1        0.2208
     23 N         141.3255  136.9908  164.0719 N.ar    1  UNL1       -0.2111
     24 C         140.1397  137.2978  164.9377 C.ar    1  UNL1        0.1147
     25 C         139.3269  138.5331  164.6860 C.ar    1  UNL1        0.0946
     26 CL        138.1411  138.8401  165.5518 Cl      1  UNL1       -0.0790
     27 C         139.7000  139.4615  163.5683 C.ar    1  UNL1        0.0992
     28 N         140.8857  139.1545  162.7026 N.ar    1  UNL1       -0.2126
     29 C         138.8872  140.6968  163.3166 C.ar    1  UNL1        0.0572
     30 C         137.8186  140.8522  162.2753 C.ar    1  UNL1        0.1235
     31 N         137.2713  142.2450  162.3771 N.ar    1  UNL1       -0.1634
     32 N         138.0016  142.9505  163.4812 N.ar    1  UNL1       -0.2281
     33 C         137.8862  144.3406  164.0329 C.ar    1  UNL1        0.1004
     34 C         138.7695  144.7738  165.1652 C.ar    1  UNL1        0.0207
     35 C         139.7681  143.8169  165.7458 C.ar    1  UNL1        0.0031
     36 C         139.8835  142.4268  165.1941 C.ar    1  UNL1        0.0193
     37 C         139.0002  141.9937  164.0619 C.ar    1  UNL1        0.0858
     38 O         144.2980  140.2582  162.0604 O.3     1  UNL1       -0.4701
     39 C         144.9058  141.6295  162.0636 C.3     1  UNL1        0.2525
@<TRIPOS>BOND
     1    11    12    2
     2    12     7    1
     3     7     8    2
     4     7     9   am
     5     9     1    1
     6     1     2   ar
     7     2     3   ar
     8     3    20    1
     9    20    22    1
    10    22    23   ar
    11    23    24   ar
    12    24    25   ar
    13    25    26    1
    14    25    27   ar
    15    27    29    1
    16    29    30   ar
    17    30    31   ar
    18    31    32   ar
    19    32    33   ar
    20    33    34   ar
    21    34    35   ar
    22    35    36   ar
    23    36    37   ar
    24    27    28   ar
    25     3     4   ar
    26     4    38    1
    27    38    39    1
    28     4     5   ar
    29     5     6   ar
    30     6    13    1
    31    13    14    1
    32    14    15    1
    33    15    17    1
    34    17    18    1
    35    17    19    1
    36    15    16    1
    37     6     1   ar
    38    16    13    1
    39    28    22   ar
    40    37    29   ar
    41    37    32   ar
    42     9    10    1
    43    20    21    1
@<TRIPOS>MOLECULE
*****
 39 43 0 0 0
SMALL
GASTEIGER

@<TRIPOS>ATOM
      1 C         142.1531  138.8165  164.5458 C.ar    1  UNL1        0.0655
      2 C         142.6054  138.5236  163.1460 C.ar    1  UNL1        0.0337
      3 C         143.7588  139.2802  162.5566 C.ar    1  UNL1        0.0862
      4 C         144.4598  140.3297  163.3671 C.ar    1  UNL1        0.1534
      5 C         144.0075  140.6227  164.7670 C.ar    1  UNL1        0.0539
      6 C         142.8541  139.8661  165.3564 C.ar    1  UNL1        0.0647
      7 C         139.6426  138.6950  165.2033 C.2     1  UNL1        0.2497
      8 O         139.2427  139.6670  164.9017 O.2     1  UNL1       -0.2698
      9 N         140.9997  138.0599  165.1352 N.am    1  UNL1       -0.2794
     10 H         141.1335  137.1464  165.4772 H       1  UNL1        0.1552
     11 C         137.7134  138.5239  166.9352 C.2     1  UNL1        0.0048
     12 C         138.4891  137.9384  165.7926 C.2     1  UNL1        0.0580
     13 N         142.4019  140.1591  166.7562 N.pl3   1  UNL1       -0.3036
     14 C         142.5770  139.4931  168.0887 C.3     1  UNL1        0.1085
     15 C         141.7622  140.5735  168.7359 C.3     1  UNL1        0.0973
     16 C         141.5871  141.2395  167.4033 C.3     1  UNL1        0.1085
     17 N         141.3099  140.8666  170.1357 N.3     1  UNL1       -0.2686
     18 C         142.0108  141.9166  170.9460 C.3     1  UNL1        0.0897
     19 C         140.1568  140.1099  170.7252 C.3     1  UNL1        0.0897
     20 N         144.2110  138.9872  161.1568 N.pl3   1  UNL1       -0.2801
     21 H         144.8380  138.2474  160.9867 H       1  UNL1        0.1552
     22 C         143.7081  139.8212  160.0160 C.ar    1  UNL1        0.2208
     23 N         144.1628  139.5301  158.6165 N.ar    1  UNL1       -0.2111
     24 C         143.6598  140.3642  157.4758 C.ar    1  UNL1        0.1147
     25 C         142.7022  141.4893  157.7344 C.ar    1  UNL1        0.0946
     26 CL        142.1992  142.3234  156.5937 Cl      1  UNL1       -0.0790
     27 C         142.2475  141.7804  159.1340 C.ar    1  UNL1        0.0992
     28 N         142.7504  140.9464  160.2747 N.ar    1  UNL1       -0.2126
     29 C         141.2898  142.9056  159.3926 C.ar    1  UNL1        0.0572
     30 C         140.1929  143.3584  158.4751 C.ar    1  UNL1        0.1235
     31 N         139.4862  144.5081  159.1297 N.ar    1  UNL1       -0.1634
     32 N         140.1462  144.7660  160.4518 N.ar    1  UNL1       -0.2281
     33 C         139.8762  145.7747  161.5286 C.ar    1  UNL1        0.1004
     34 C         140.7210  145.7929  162.7679 C.ar    1  UNL1        0.0207
     35 C         141.8357  144.8025  162.9304 C.ar    1  UNL1        0.0031
     36 C         142.1057  143.7938  161.8536 C.ar    1  UNL1        0.0193
     37 C         141.2610  143.7756  160.6143 C.ar    1  UNL1        0.0858
     38 O         145.6131  141.0864  162.7778 O.3     1  UNL1       -0.4701
     39 C         145.3896  142.4376  162.1662 C.3     1  UNL1        0.2525
@<TRIPOS>BOND
     1    11    12    2
     2    12     7    1
     3     7     8    2
     4     7     9   am
     5     9     1    1
     6     1     2   ar
     7     2     3   ar
     8     3    20    1
     9    20    22    1
    10    22    23   ar
    11    23    24   ar
    12    24    25   ar
    13    25    26    1
    14    25    27   ar
    15    27    29    1
    16    29    30   ar
    17    30    31   ar
    18    31    32   ar
    19    32    33   ar
    20    33    34   ar
    21    34    35   ar
    22    35    36   ar
    23    36    37   ar
    24    27    28   ar
    25     3     4   ar
    26     4    38    1
    27    38    39    1
    28     4     5   ar
    29     5     6   ar
    30     6    13    1
    31    13    14    1
    32    14    15    1
    33    15    17    1
    34    17    18    1
    35    17    19    1
    36    15    16    1
    37     6     1   ar
    38    16    13    1
    39    28    22   ar
    40    37    29   ar
    41    37    32   ar
    42     9    10    1
    43    20    21    1
@<TRIPOS>MOLECULE
*****
 39 43 0 0 0
SMALL
GASTEIGER

@<TRIPOS>ATOM
      1 C         142.8821  133.3224  156.5321 C.ar    1  UNL1        0.0655
      2 C         143.3815  134.6956  156.8712 C.ar    1  UNL1        0.0337
      3 C         143.1150  135.8417  155.9408 C.ar    1  UNL1        0.0862
      4 C         142.3491  135.6145  154.6712 C.ar    1  UNL1        0.1534
      5 C         141.8496  134.2412  154.3321 C.ar    1  UNL1        0.0539
      6 C         142.1161  133.0953  155.2626 C.ar    1  UNL1        0.0647
      7 C         144.3983  131.3611  157.3093 C.2     1  UNL1        0.2497
      8 O         145.2481  131.3952  156.6220 O.2     1  UNL1       -0.2698
      9 N         143.1486  132.1765  157.4625 N.am    1  UNL1       -0.2794
     10 H         142.5034  131.9595  158.1738 H       1  UNL1        0.1552
     11 C         143.6270  129.1498  158.4343 C.2     1  UNL1        0.0048
     12 C         144.6649  130.2151  158.2397 C.2     1  UNL1        0.0580
     13 N         141.6167  131.7222  154.9234 N.pl3   1  UNL1       -0.3036
     14 C         142.2610  130.4272  154.5263 C.3     1  UNL1        0.1085
     15 C         140.9102  129.7802  154.4438 C.3     1  UNL1        0.0973
     16 C         140.2658  131.0752  154.8409 C.3     1  UNL1        0.1085
     17 N         140.4106  128.4071  154.1047 N.3     1  UNL1       -0.2686
     18 C         140.0898  128.0560  152.6820 C.3     1  UNL1        0.0897
     19 C         140.2319  127.3853  155.1880 C.3     1  UNL1        0.0897
     20 N         143.6145  137.2148  156.2799 N.pl3   1  UNL1       -0.2801
     21 H         144.4179  137.5700  155.8355 H       1  UNL1        0.1552
     22 C         142.8899  138.0467  157.2962 C.ar    1  UNL1        0.2208
     23 N         141.4024  137.9225  157.4442 N.ar    1  UNL1       -0.2111
     24 C         140.6778  138.7544  158.4605 C.ar    1  UNL1        0.1147
     25 C         141.4406  139.7105  159.3287 C.ar    1  UNL1        0.0946
     26 CL        140.7160  140.5424  160.3450 Cl      1  UNL1       -0.0790
     27 C         142.9282  139.8347  159.1807 C.ar    1  UNL1        0.0992
     28 N         143.6527  139.0028  158.1644 N.ar    1  UNL1       -0.2126
     29 C         143.6911  140.7908  160.0490 C.ar    1  UNL1        0.0572
     30 C         144.1210  142.1766  159.6684 C.ar    1  UNL1        0.1235
     31 N         144.8536  142.7712  160.8345 N.ar    1  UNL1       -0.1634
     32 N         144.8765  141.7529  161.9357 N.ar    1  UNL1       -0.2281
     33 C         145.4587  141.7821  163.3177 C.ar    1  UNL1        0.1004
     34 C         145.3225  140.5873  164.2143 C.ar    1  UNL1        0.0207
     35 C         144.6041  139.3633  163.7288 C.ar    1  UNL1        0.0031
     36 C         144.0218  139.3342  162.3467 C.ar    1  UNL1        0.0193
     37 C         144.1580  140.5290  161.4502 C.ar    1  UNL1        0.0858
     38 O         142.0825  136.7604  153.7408 O.3     1  UNL1       -0.4701
     39 C         140.7116  137.3649  153.6689 C.3     1  UNL1        0.2525
@<TRIPOS>BOND
     1    11    12    2
     2    12     7    1
     3     7     8    2
     4     7     9   am
     5     9     1    1
     6     1     2   ar
     7     2     3   ar
     8     3    20    1
     9    20    22    1
    10    22    23   ar
    11    23    24   ar
    12    24    25   ar
    13    25    26    1
    14    25    27   ar
    15    27    29    1
    16    29    30   ar
    17    30    31   ar
    18    31    32   ar
    19    32    33   ar
    20    33    34   ar
    21    34    35   ar
    22    35    36   ar
    23    36    37   ar
    24    27    28   ar
    25     3     4   ar
    26     4    38    1
    27    38    39    1
    28     4     5   ar
    29     5     6   ar
    30     6    13    1
    31    13    14    1
    32    14    15    1
    33    15    17    1
    34    17    18    1
    35    17    19    1
    36    15    16    1
    37     6     1   ar
    38    16    13    1
    39    28    22   ar
    40    37    29   ar
    41    37    32   ar
    42     9    10    1
    43    20    21    1
@<TRIPOS>MOLECULE
*****
 39 43 0 0 0
SMALL
GASTEIGER

@<TRIPOS>ATOM
      1 C         138.4760  140.2546  159.5786 C.ar    1  UNL1        0.0655
      2 C         138.4341  139.5197  160.8855 C.ar    1  UNL1        0.0337
      3 C         138.3170  140.2826  162.1717 C.ar    1  UNL1        0.0862
      4 C         138.2418  141.7805  162.1509 C.ar    1  UNL1        0.1534
      5 C         138.2837  142.5156  160.8440 C.ar    1  UNL1        0.0539
      6 C         138.4008  141.7526  159.5578 C.ar    1  UNL1        0.0647
      7 C         139.7950  138.6310  158.0378 C.2     1  UNL1        0.2497
      8 O         140.6965  138.3966  158.6105 O.2     1  UNL1       -0.2698
      9 N         138.5931  139.4916  158.2925 N.am    1  UNL1       -0.2794
     10 H         137.8812  139.5557  157.6155 H       1  UNL1        0.1552
     11 C         141.0806  136.9552  156.5249 C.2     1  UNL1        0.0048
     12 C         139.9122  137.8680  156.7517 C.2     1  UNL1        0.0580
     13 N         138.4427  142.4876  158.2510 N.pl3   1  UNL1       -0.3036
     14 C         137.5723  142.5312  157.0301 C.3     1  UNL1        0.1085
     15 C         138.5020  143.5273  156.4028 C.3     1  UNL1        0.0973
     16 C         139.3724  143.4837  157.6236 C.3     1  UNL1        0.1085
     17 N         138.5440  144.2624  155.0959 N.3     1  UNL1       -0.2686
     18 C         139.2534  143.6603  153.9193 C.3     1  UNL1        0.0897
     19 C         137.8766  145.5993  154.9657 C.3     1  UNL1        0.0897
     20 N         138.2751  139.5475  163.4786 N.pl3   1  UNL1       -0.2801
     21 H         137.4098  139.2872  163.8694 H       1  UNL1        0.1552
     22 C         139.5516  139.2091  164.1900 C.ar    1  UNL1        0.2208
     23 N         140.2709  137.9316  163.8729 N.ar    1  UNL1       -0.2111
     24 C         141.5474  137.5932  164.5843 C.ar    1  UNL1        0.1147
     25 C         142.1044  138.5322  165.6129 C.ar    1  UNL1        0.0946
     26 CL        143.3808  138.1938  166.3244 Cl      1  UNL1       -0.0790
     27 C         141.3850  139.8098  165.9300 C.ar    1  UNL1        0.0992
     28 N         140.1086  140.1481  165.2186 N.ar    1  UNL1       -0.2126
     29 C         141.9420  140.7488  166.9586 C.ar    1  UNL1        0.0572
     30 C         142.9761  141.8082  166.7171 C.ar    1  UNL1        0.1235
     31 N         143.2360  142.5074  168.0185 N.ar    1  UNL1       -0.1634
     32 N         142.3625  141.8801  169.0643 N.ar    1  UNL1       -0.2281
     33 C         142.1920  142.1582  170.5284 C.ar    1  UNL1        0.1004
     34 C         141.2218  141.3493  171.3373 C.ar    1  UNL1        0.0207
     35 C         140.4221  140.2624  170.6822 C.ar    1  UNL1        0.0031
     36 C         140.5926  139.9844  169.2182 C.ar    1  UNL1        0.0193
     37 C         141.5628  140.7932  168.4092 C.ar    1  UNL1        0.0858
     38 O         138.1247  142.5435  163.4371 O.3     1  UNL1       -0.4701
     39 C         137.7752  144.0021  163.4147 C.3     1  UNL1        0.2525
@<TRIPOS>BOND
     1    11    12    2
     2    12     7    1
     3     7     8    2
     4     7     9   am
     5     9     1    1
     6     1     2   ar
     7     2     3   ar
     8     3    20    1
     9    20    22    1
    10    22    23   ar
    11    23    24   ar
    12    24    25   ar
    13    25    26    1
    14    25    27   ar
    15    27    29    1
    16    29    30   ar
    17    30    31   ar
    18    31    32   ar
    19    32    33   ar
    20    33    34   ar
    21    34    35   ar
    22    35    36   ar
    23    36    37   ar
    24    27    28   ar
    25     3     4   ar
    26     4    38    1
    27    38    39    1
    28     4     5   ar
    29     5     6   ar
    30     6    13    1
    31    13    14    1
    32    14    15    1
    33    15    17    1
    34    17    18    1
    35    17    19    1
    36    15    16    1
    37     6     1   ar
    38    16    13    1
    39    28    22   ar
    40    37    29   ar
    41    37    32   ar
    42     9    10    1
    43    20    21    1
@<TRIPOS>MOLECULE
*****
 39 43 0 0 0
SMALL
GASTEIGER

@<TRIPOS>ATOM
      1 C         142.1183  137.8404  158.4980 C.ar    1  UNL1        0.0655
      2 C         142.8665  137.7491  159.7948 C.ar    1  UNL1        0.0337
      3 C         142.1672  138.0504  161.0872 C.ar    1  UNL1        0.0862
      4 C         140.7195  138.4430  161.0827 C.ar    1  UNL1        0.1534
      5 C         139.9712  138.5343  159.7858 C.ar    1  UNL1        0.0539
      6 C         140.6706  138.2330  158.4935 C.ar    1  UNL1        0.0647
      7 C         143.0357  136.1158  156.7851 C.2     1  UNL1        0.2497
      8 O         142.7887  135.1467  157.2272 O.2     1  UNL1       -0.2698
      9 N         142.8177  137.5390  157.2057 N.am    1  UNL1       -0.2794
     10 H         143.1336  138.2753  156.6336 H       1  UNL1        0.1552
     11 C         142.9801  135.1836  154.3606 C.2     1  UNL1        0.0048
     12 C         143.7351  135.8144  155.4928 C.2     1  UNL1        0.0580
     13 N         139.9222  138.3243  157.1967 N.pl3   1  UNL1       -0.3036
     14 C         139.2636  139.4310  156.4278 C.3     1  UNL1        0.1085
     15 C         138.8639  138.4533  155.3628 C.3     1  UNL1        0.0973
     16 C         139.5225  137.3465  156.1317 C.3     1  UNL1        0.1085
     17 N         138.1155  138.5445  154.0660 N.3     1  UNL1       -0.2686
     18 C         138.8306  138.9622  152.8152 C.3     1  UNL1        0.0897
     19 C         136.6523  138.2181  154.0199 C.3     1  UNL1        0.0897
     20 N         142.9155  137.9591  162.3839 N.pl3   1  UNL1       -0.2801
     21 H         143.1445  137.0782  162.7591 H       1  UNL1        0.1552
     22 C         143.3150  139.2099  163.1091 C.ar    1  UNL1        0.2208
     23 N         144.5404  139.9639  162.6849 N.ar    1  UNL1       -0.2111
     24 C         144.9398  141.2147  163.4100 C.ar    1  UNL1        0.1147
     25 C         144.1139  141.7115  164.5594 C.ar    1  UNL1        0.0946
     26 CL        144.5134  142.9624  165.2846 Cl      1  UNL1       -0.0790
     27 C         142.8884  140.9575  164.9836 C.ar    1  UNL1        0.0992
     28 N         142.4891  139.7068  164.2584 N.ar    1  UNL1       -0.2126
     29 C         142.0625  141.4544  166.1329 C.ar    1  UNL1        0.0572
     30 C         141.1671  142.6577  166.1199 C.ar    1  UNL1        0.1235
     31 N         140.5382  142.7821  167.4761 N.ar    1  UNL1       -0.1634
     32 N         141.0450  141.6557  168.3272 N.ar    1  UNL1       -0.2281
     33 C         140.7703  141.2712  169.7507 C.ar    1  UNL1        0.1004
     34 C         141.4377  140.0661  170.3442 C.ar    1  UNL1        0.0207
     35 C         142.3798  139.2455  169.5141 C.ar    1  UNL1        0.0031
     36 C         142.6545  139.6300  168.0905 C.ar    1  UNL1        0.0193
     37 C         141.9871  140.8351  167.4970 C.ar    1  UNL1        0.0858
     38 O         140.0201  138.7443  162.3750 O.3     1  UNL1       -0.4701
     39 C         139.3603  137.6397  163.1460 C.3     1  UNL1        0.2525
@<TRIPOS>BOND
     1    11    12    2
     2    12     7    1
     3     7     8    2
     4     7     9   am
     5     9     1    1
     6     1     2   ar
     7     2     3   ar
     8     3    20    1
     9    20    22    1
    10    22    23   ar
    11    23    24   ar
    12    24    25   ar
    13    25    26    1
    14    25    27   ar
    15    27    29    1
    16    29    30   ar
    17    30    31   ar
    18    31    32   ar
    19    32    33   ar
    20    33    34   ar
    21    34    35   ar
    22    35    36   ar
    23    36    37   ar
    24    27    28   ar
    25     3     4   ar
    26     4    38    1
    27    38    39    1
    28     4     5   ar
    29     5     6   ar
    30     6    13    1
    31    13    14    1
    32    14    15    1
    33    15    17    1
    34    17    18    1
    35    17    19    1
    36    15    16    1
    37     6     1   ar
    38    16    13    1
    39    28    22   ar
    40    37    29   ar
    41    37    32   ar
    42     9    10    1
    43    20    21    1
@<TRIPOS>MOLECULE
*****
 39 43 0 0 0
SMALL
GASTEIGER

@<TRIPOS>ATOM
      1 C         138.7274  139.9401  158.4766 C.ar    1  UNL1        0.0655
      2 C         137.9958  140.4017  159.7020 C.ar    1  UNL1        0.0337
      3 C         138.1360  139.6443  160.9892 C.ar    1  UNL1        0.0862
      4 C         139.0078  138.4253  161.0509 C.ar    1  UNL1        0.1534
      5 C         139.7395  137.9636  159.8255 C.ar    1  UNL1        0.0539
      6 C         139.5992  138.7210  158.5383 C.ar    1  UNL1        0.0647
      7 C         137.2390  140.8436  156.5484 C.2     1  UNL1        0.2497
      8 O         136.2330  140.5032  156.8089 O.2     1  UNL1       -0.2698
      9 N         138.5871  140.6975  157.1895 N.am    1  UNL1       -0.2794
     10 H         139.3799  141.0987  156.7655 H       1  UNL1        0.1552
     11 C         136.5131  142.9820  155.2636 C.2     1  UNL1        0.0048
     12 C         137.0986  141.6010  155.2613 C.2     1  UNL1        0.0580
     13 N         140.3308  138.2594  157.3130 N.pl3   1  UNL1       -0.3036
     14 C         141.7472  138.3471  156.8272 C.3     1  UNL1        0.1085
     15 C         141.3654  137.6063  155.5800 C.3     1  UNL1        0.0973
     16 C         139.9490  137.5186  156.0658 C.3     1  UNL1        0.1085
     17 N         142.0970  137.1446  154.3546 N.3     1  UNL1       -0.2686
     18 C         142.6427  135.7489  154.2883 C.3     1  UNL1        0.0897
     19 C         142.2828  138.0784  153.1956 C.3     1  UNL1        0.0897
     20 N         137.4044  140.1060  162.2146 N.pl3   1  UNL1       -0.2801
     21 H         136.5899  139.6370  162.5076 H       1  UNL1        0.1552
     22 C         137.9136  141.2824  162.9935 C.ar    1  UNL1        0.2208
     23 N         137.2234  142.6097  162.8845 N.ar    1  UNL1       -0.2111
     24 C         137.7327  143.7861  163.6634 C.ar    1  UNL1        0.1147
     25 C         138.9321  143.6352  164.5515 C.ar    1  UNL1        0.0946
     26 CL        139.4413  144.8115  165.3305 Cl      1  UNL1       -0.0790
     27 C         139.6223  142.3078  164.6606 C.ar    1  UNL1        0.0992
     28 N         139.1130  141.1315  163.8816 N.ar    1  UNL1       -0.2126
     29 C         140.8217  142.1568  165.5486 C.ar    1  UNL1        0.0572
     30 C         142.1912  142.7075  165.2818 C.ar    1  UNL1        0.1235
     31 N         143.0780  142.3197  166.4277 N.ar    1  UNL1       -0.1634
     32 N         142.2566  141.5294  167.4028 N.ar    1  UNL1       -0.2281
     33 C         142.5983  140.8885  168.7151 C.ar    1  UNL1        0.1004
     34 C         141.5455  140.1469  169.4842 C.ar    1  UNL1        0.0207
     35 C         140.1510  140.0462  168.9409 C.ar    1  UNL1        0.0031
     36 C         139.8093  140.6872  167.6285 C.ar    1  UNL1        0.0193
     37 C         140.8621  141.4288  166.8595 C.ar    1  UNL1        0.0858
     38 O         139.1481  137.6679  162.3381 O.3     1  UNL1       -0.4701
     39 C         140.4913  137.5471  162.9947 C.3     1  UNL1        0.2525
@<TRIPOS>BOND
     1    11    12    2
     2    12     7    1
     3     7     8    2
     4     7     9   am
     5     9     1    1
     6     1     2   ar
     7     2     3   ar
     8     3    20    1
     9    20    22    1
    10    22    23   ar
    11    23    24   ar
    12    24    25   ar
    13    25    26    1
    14    25    27   ar
    15    27    29    1
    16    29    30   ar
    17    30    31   ar
    18    31    32   ar
    19    32    33   ar
    20    33    34   ar
    21    34    35   ar
    22    35    36   ar
    23    36    37   ar
    24    27    28   ar
    25     3     4   ar
    26     4    38    1
    27    38    39    1
    28     4     5   ar
    29     5     6   ar
    30     6    13    1
    31    13    14    1
    32    14    15    1
    33    15    17    1
    34    17    18    1
    35    17    19    1
    36    15    16    1
    37     6     1   ar
    38    16    13    1
    39    28    22   ar
    40    37    29   ar
    41    37    32   ar
    42     9    10    1
    43    20    21    1
@<TRIPOS>MOLECULE
*****
 39 43 0 0 0
SMALL
GASTEIGER

@<TRIPOS>ATOM
      1 C         143.3279  143.1717  159.4889 C.ar    1  UNL1        0.0655
      2 C         144.1127  142.8734  160.7319 C.ar    1  UNL1        0.0337
      3 C         143.6709  143.4351  162.0508 C.ar    1  UNL1        0.0862
      4 C         142.4443  144.2951  162.1266 C.ar    1  UNL1        0.1534
      5 C         141.6594  144.5934  160.8836 C.ar    1  UNL1        0.0539
      6 C         142.1012  144.0317  159.5647 C.ar    1  UNL1        0.0647
      7 C         144.0712  141.1463  158.0416 C.2     1  UNL1        0.2497
      8 O         144.0477  140.3019  158.7360 O.2     1  UNL1       -0.2698
      9 N         143.7697  142.6100  158.1701 N.am    1  UNL1       -0.2794
     10 H         143.8617  143.2020  157.3889 H       1  UNL1        0.1552
     11 C         145.8023  141.0412  156.1069 C.2     1  UNL1        0.0048
     12 C         144.5130  140.5845  156.7228 C.2     1  UNL1        0.0580
     13 N         141.3164  144.3300  158.3218 N.pl3   1  UNL1       -0.3036
     14 C         141.5229  145.2054  157.1214 C.3     1  UNL1        0.1085
     15 C         140.2062  144.7519  156.5640 C.3     1  UNL1        0.0973
     16 C         139.9996  143.8765  157.7645 C.3     1  UNL1        0.1085
     17 N         139.4213  145.0502  155.3211 N.3     1  UNL1       -0.2686
     18 C         138.4575  146.1995  155.3005 C.3     1  UNL1        0.0897
     19 C         139.6000  144.1993  154.0989 C.3     1  UNL1        0.0897
     20 N         144.4558  143.1367  163.2937 N.pl3   1  UNL1       -0.2801
     21 H         145.1139  143.7880  163.6285 H       1  UNL1        0.1552
     22 C         144.2382  141.8462  164.0266 C.ar    1  UNL1        0.2208
     23 N         145.1992  140.7090  163.8445 N.ar    1  UNL1       -0.2111
     24 C         144.9816  139.4184  164.5773 C.ar    1  UNL1        0.1147
     25 C         143.8029  139.2651  165.4923 C.ar    1  UNL1        0.0946
     26 CL        143.5852  137.9745  166.2251 Cl      1  UNL1       -0.0790
     27 C         142.8418  140.4023  165.6744 C.ar    1  UNL1        0.0992
     28 N         143.0595  141.6928  164.9415 N.ar    1  UNL1       -0.2126
     29 C         141.6631  140.2490  166.5894 C.ar    1  UNL1        0.0572
     30 C         140.2662  139.8918  166.1755 C.ar    1  UNL1        0.1235
     31 N         139.4142  139.8480  167.4092 N.ar    1  UNL1       -0.1634
     32 N         140.2844  140.1780  168.5856 N.ar    1  UNL1       -0.2281
     33 C         139.9908  140.2849  170.0526 C.ar    1  UNL1        0.1004
     34 C         141.0870  140.6396  171.0130 C.ar    1  UNL1        0.0207
     35 C         142.4770  140.8874  170.5063 C.ar    1  UNL1        0.0031
     36 C         142.7706  140.7805  169.0392 C.ar    1  UNL1        0.0193
     37 C         141.6743  140.4258  168.0789 C.ar    1  UNL1        0.0858
     38 O         142.0025  144.8568  163.4455 O.3     1  UNL1       -0.4701
     39 C         140.5974  144.6359  163.9219 C.3     1  UNL1        0.2525
@<TRIPOS>BOND
     1    11    12    2
     2    12     7    1
     3     7     8    2
     4     7     9   am
     5     9     1    1
     6     1     2   ar
     7     2     3   ar
     8     3    20    1
     9    20    22    1
    10    22    23   ar
    11    23    24   ar
    12    24    25   ar
    13    25    26    1
    14    25    27   ar
    15    27    29    1
    16    29    30   ar
    17    30    31   ar
    18    31    32   ar
    19    32    33   ar
    20    33    34   ar
    21    34    35   ar
    22    35    36   ar
    23    36    37   ar
    24    27    28   ar
    25     3     4   ar
    26     4    38    1
    27    38    39    1
    28     4     5   ar
    29     5     6   ar
    30     6    13    1
    31    13    14    1
    32    14    15    1
    33    15    17    1
    34    17    18    1
    35    17    19    1
    36    15    16    1
    37     6     1   ar
    38    16    13    1
    39    28    22   ar
    40    37    29   ar
    41    37    32   ar
    42     9    10    1
    43    20    21    1
@<TRIPOS>MOLECULE
*****
 39 43 0 0 0
SMALL
GASTEIGER

@<TRIPOS>ATOM
      1 C         141.1500  140.2108  157.4179 C.ar    1  UNL1        0.0655
      2 C         140.4963  141.4429  157.9698 C.ar    1  UNL1        0.0337
      3 C         139.3149  141.3190  158.8857 C.ar    1  UNL1        0.0862
      4 C         138.7873  139.9629  159.2498 C.ar    1  UNL1        0.1534
      5 C         139.4410  138.7307  158.6980 C.ar    1  UNL1        0.0539
      6 C         140.6224  138.8547  157.7820 C.ar    1  UNL1        0.0647
      7 C         143.7221  140.2187  157.0518 C.2     1  UNL1        0.2497
      8 O         144.1322  140.0497  158.0513 O.2     1  UNL1       -0.2698
      9 N         142.3314  140.3349  156.5019 N.am    1  UNL1       -0.2794
     10 H         142.1940  140.4925  155.5399 H       1  UNL1        0.1552
     11 C         145.2166  139.2452  155.1626 C.2     1  UNL1        0.0048
     12 C         144.9036  140.3427  156.1359 C.2     1  UNL1        0.0580
     13 N         141.2761  137.6226  157.2302 N.pl3   1  UNL1       -0.3036
     14 C         142.5547  136.8873  157.5033 C.3     1  UNL1        0.1085
     15 C         142.2005  135.8801  156.4497 C.3     1  UNL1        0.0973
     16 C         140.9220  136.6153  156.1766 C.3     1  UNL1        0.1085
     17 N         142.8541  134.6479  155.8978 N.3     1  UNL1       -0.2686
     18 C         142.8955  134.4208  154.4157 C.3     1  UNL1        0.0897
     19 C         143.4663  133.6430  156.8280 C.3     1  UNL1        0.0897
     20 N         138.6612  142.5511  159.4375 N.pl3   1  UNL1       -0.2801
     21 H         138.0798  143.0994  158.8625 H       1  UNL1        0.1552
     22 C         138.8932  142.9479  160.8654 C.ar    1  UNL1        0.2208
     23 N         137.7260  143.1796  161.7785 N.ar    1  UNL1       -0.2111
     24 C         137.9580  143.5764  163.2064 C.ar    1  UNL1        0.1147
     25 C         139.3572  143.7414  163.7211 C.ar    1  UNL1        0.0946
     26 CL        139.5893  144.1381  165.1489 Cl      1  UNL1       -0.0790
     27 C         140.5245  143.5096  162.8078 C.ar    1  UNL1        0.0992
     28 N         140.2925  143.1129  161.3801 N.ar    1  UNL1       -0.2126
     29 C         141.9238  143.6746  163.3225 C.ar    1  UNL1        0.0572
     30 C         142.5455  144.9569  163.7908 C.ar    1  UNL1        0.1235
     31 N         143.9529  144.6610  164.2170 N.ar    1  UNL1       -0.1634
     32 N         144.2010  143.1959  164.0121 N.ar    1  UNL1       -0.2281
     33 C         145.4069  142.3382  164.2575 C.ar    1  UNL1        0.1004
     34 C         145.3586  140.8709  163.9500 C.ar    1  UNL1        0.0207
     35 C         144.1045  140.2613  163.3972 C.ar    1  UNL1        0.0031
     36 C         142.8987  141.1190  163.1518 C.ar    1  UNL1        0.0193
     37 C         142.9469  142.5863  163.4593 C.ar    1  UNL1        0.0858
     38 O         137.6059  139.8389  160.1658 O.3     1  UNL1       -0.4701
     39 C         137.7999  139.3881  161.5833 C.3     1  UNL1        0.2525
@<TRIPOS>BOND
     1    11    12    2
     2    12     7    1
     3     7     8    2
     4     7     9   am
     5     9     1    1
     6     1     2   ar
     7     2     3   ar
     8     3    20    1
     9    20    22    1
    10    22    23   ar
    11    23    24   ar
    12    24    25   ar
    13    25    26    1
    14    25    27   ar
    15    27    29    1
    16    29    30   ar
    17    30    31   ar
    18    31    32   ar
    19    32    33   ar
    20    33    34   ar
    21    34    35   ar
    22    35    36   ar
    23    36    37   ar
    24    27    28   ar
    25     3     4   ar
    26     4    38    1
    27    38    39    1
    28     4     5   ar
    29     5     6   ar
    30     6    13    1
    31    13    14    1
    32    14    15    1
    33    15    17    1
    34    17    18    1
    35    17    19    1
    36    15    16    1
    37     6     1   ar
    38    16    13    1
    39    28    22   ar
    40    37    29   ar
    41    37    32   ar
    42     9    10    1
    43    20    21    1
@<TRIPOS>MOLECULE
*****
 39 43 0 0 0
SMALL
GASTEIGER

@<TRIPOS>ATOM
      1 C         142.9432  142.5143  164.1621 C.ar    1  UNL1        0.0655
      2 C         143.1369  143.1119  162.7999 C.ar    1  UNL1        0.0337
      3 C         142.2518  144.2320  162.3394 C.ar    1  UNL1        0.0862
      4 C         141.1729  144.7545  163.2411 C.ar    1  UNL1        0.1534
      5 C         140.9792  144.1569  164.6033 C.ar    1  UNL1        0.0539
      6 C         141.8644  143.0369  165.0638 C.ar    1  UNL1        0.0647
      7 C         143.2770  140.0047  164.7451 C.2     1  UNL1        0.2497
      8 O         142.2950  139.5584  164.5656 O.2     1  UNL1       -0.2698
      9 N         143.8283  141.3943  164.6225 N.am    1  UNL1       -0.2794
     10 H         144.7711  141.5711  164.8441 H       1  UNL1        0.1552
     11 C         143.8022  138.1000  166.4323 C.2     1  UNL1        0.0048
     12 C         144.1621  138.8845  165.2056 C.2     1  UNL1        0.0580
     13 N         141.6706  142.4394  166.4259 N.pl3   1  UNL1       -0.3036
     14 C         140.5685  141.6816  167.1047 C.3     1  UNL1        0.1085
     15 C         141.3967  141.5944  168.3523 C.3     1  UNL1        0.0973
     16 C         142.4988  142.3523  167.6735 C.3     1  UNL1        0.1085
     17 N         141.2030  140.9970  169.7145 N.3     1  UNL1       -0.2686
     18 C         141.5221  139.5505  169.9513 C.3     1  UNL1        0.0897
     19 C         140.6903  141.8459  170.8398 C.3     1  UNL1        0.0897
     20 N         142.4455  144.8295  160.9773 N.pl3   1  UNL1       -0.2801
     21 H         143.2009  145.4382  160.8097 H       1  UNL1        0.1552
     22 C         141.4884  144.4995  159.8705 C.ar    1  UNL1        0.2208
     23 N         140.7212  143.2110  159.9016 N.ar    1  UNL1       -0.2111
     24 C         139.7641  142.8810  158.7948 C.ar    1  UNL1        0.1147
     25 C         139.5742  143.8396  157.6568 C.ar    1  UNL1        0.0946
     26 CL        138.6171  143.5097  156.5500 Cl      1  UNL1       -0.0790
     27 C         140.3415  145.1283  157.6257 C.ar    1  UNL1        0.0992
     28 N         141.2985  145.4581  158.7325 N.ar    1  UNL1       -0.2126
     29 C         140.1516  146.0869  156.4877 C.ar    1  UNL1        0.0572
     30 C         139.1674  147.2180  156.4426 C.ar    1  UNL1        0.1235
     31 N         139.3201  147.9128  155.1220 N.ar    1  UNL1       -0.1634
     32 N         140.3987  147.2112  154.3510 N.ar    1  UNL1       -0.2281
     33 C         140.9793  147.4542  152.9895 C.ar    1  UNL1        0.1004
     34 C         142.0738  146.5686  152.4720 C.ar    1  UNL1        0.0207
     35 C         142.5876  145.4401  153.3160 C.ar    1  UNL1        0.0031
     36 C         142.0071  145.1972  154.6776 C.ar    1  UNL1        0.0193
     37 C         140.9126  146.0827  155.1951 C.ar    1  UNL1        0.0858
     38 O         140.2878  145.8746  162.7807 O.3     1  UNL1       -0.4701
     39 C         138.9403  145.5732  162.1947 C.3     1  UNL1        0.2525
@<TRIPOS>BOND
     1    11    12    2
     2    12     7    1
     3     7     8    2
     4     7     9   am
     5     9     1    1
     6     1     2   ar
     7     2     3   ar
     8     3    20    1
     9    20    22    1
    10    22    23   ar
    11    23    24   ar
    12    24    25   ar
    13    25    26    1
    14    25    27   ar
    15    27    29    1
    16    29    30   ar
    17    30    31   ar
    18    31    32   ar
    19    32    33   ar
    20    33    34   ar
    21    34    35   ar
    22    35    36   ar
    23    36    37   ar
    24    27    28   ar
    25     3     4   ar
    26     4    38    1
    27    38    39    1
    28     4     5   ar
    29     5     6   ar
    30     6    13    1
    31    13    14    1
    32    14    15    1
    33    15    17    1
    34    17    18    1
    35    17    19    1
    36    15    16    1
    37     6     1   ar
    38    16    13    1
    39    28    22   ar
    40    37    29   ar
    41    37    32   ar
    42     9    10    1
    43    20    21    1
