@<TRIPOS>MOLECULE
*****
 24 26 0 0 0
SMALL
GASTEIGER

@<TRIPOS>ATOM
      1 C         138.8546  139.5697  166.1819 C.ar    1  UNL1       -0.0000
      2 C         137.9145  139.0229  167.2148 C.ar    1  UNL1       -0.0000
      3 C         138.1505  139.3063  168.6688 C.ar    1  UNL1       -0.0001
      4 C         139.3267  140.1366  169.0898 C.ar    1  UNL1        0.0017
      5 C         140.2669  140.6834  168.0568 C.ar    1  UNL1        0.0437
      6 C         140.0308  140.3999  166.6029 C.ar    1  UNL1        0.0017
      7 C         141.4431  141.5137  168.4777 C.3     1  UNL1        0.2769
      8 C         140.8968  142.5039  167.4922 C.3     1  UNL1        0.0847
      9 N         142.5050  142.5510  168.6926 N.2     1  UNL1       -0.2227
     10 C         143.4617  142.0282  169.7230 C.2     1  UNL1        0.1396
     11 C         144.6760  142.7408  170.2406 C.3     1  UNL1        0.0597
     12 C         142.9910  140.6679  170.1448 C.2     1  UNL1        0.3285
     13 N         143.6519  139.7813  171.1583 N.pl3   1  UNL1       -0.2454
     14 N         141.7434  140.3499  169.3752 N.2     1  UNL1       -0.0450
     15 H         144.4724  140.0800  171.6130 H       1  UNL1        0.2885
     16 H         143.2651  138.9008  171.3687 H       1  UNL1        0.2885
     17 C         137.8584  140.0829  162.3748 C.ar    1  UNL1        0.1387
     18 C         138.1466  138.7194  161.8200 C.ar    1  UNL1        0.0369
     19 C         138.6709  137.6394  162.7192 C.ar    1  UNL1        0.0031
     20 C         138.9069  137.9227  164.1732 C.ar    1  UNL1        0.0002
     21 C         138.6186  139.2862  164.7279 C.ar    1  UNL1        0.0030
     22 C         138.0944  140.3663  163.8287 C.ar    1  UNL1        0.0369
     23 C         138.2376  142.2764  161.0351 C.3     1  UNL1        0.2525
     24 O         137.3341  141.1630  161.4756 O.3     1  UNL1       -0.4714
@<TRIPOS>BOND
     1    23    24    1
     2    24    17    1
     3    17    18   ar
     4    18    19   ar
     5    19    20   ar
     6    20    21   ar
     7    21     1    1
     8     1     2   ar
     9     2     3   ar
    10     3     4   ar
    11     4     5   ar
    12     5     7    1
    13     7     8    1
    14     7     9    1
    15     9    10    2
    16    10    11    1
    17    10    12    1
    18    12    13    1
    19    12    14    2
    20     5     6   ar
    21    21    22   ar
    22    22    17   ar
    23     6     1   ar
    24    14     7    1
    25    13    15    1
    26    13    16    1
@<TRIPOS>MOLECULE
*****
 24 26 0 0 0
SMALL
GASTEIGER

@<TRIPOS>ATOM
      1 C         139.8820  141.3965  166.8531 C.ar    1  UNL1       -0.0000
      2 C         139.1790  140.0853  166.6618 C.ar    1  UNL1       -0.0000
      3 C         138.3471  139.8523  165.4355 C.ar    1  UNL1       -0.0001
      4 C         138.2183  140.9304  164.4006 C.ar    1  UNL1        0.0017
      5 C         138.9213  142.2416  164.5920 C.ar    1  UNL1        0.0437
      6 C         139.7532  142.4746  165.8182 C.ar    1  UNL1        0.0017
      7 C         138.7925  143.3197  163.5571 C.3     1  UNL1        0.2769
      8 C         137.5045  142.6272  163.2232 C.3     1  UNL1        0.0847
      9 N         138.3943  144.2531  162.4524 N.2     1  UNL1       -0.2227
     10 C         139.4633  145.2971  162.3199 C.2     1  UNL1        0.1396
     11 C         139.4719  146.4303  161.3371 C.3     1  UNL1        0.0597
     12 C         140.5219  145.0090  163.3427 C.2     1  UNL1        0.3285
     13 N         141.7751  145.8035  163.5623 N.pl3   1  UNL1       -0.2454
     14 N         140.1074  143.7869  164.1073 N.2     1  UNL1       -0.0450
     15 H         141.9601  146.5947  163.0065 H       1  UNL1        0.2885
     16 H         142.4127  145.5337  164.2623 H       1  UNL1        0.2885
     17 C         142.4295  140.7703  169.8311 C.ar    1  UNL1        0.1387
     18 C         142.3778  142.0955  170.5318 C.ar    1  UNL1        0.0369
     19 C         141.4941  143.1877  170.0063 C.ar    1  UNL1        0.0031
     20 C         140.6622  142.9547  168.7801 C.ar    1  UNL1        0.0002
     21 C         140.7140  141.6295  168.0794 C.ar    1  UNL1        0.0030
     22 C         141.5976  140.5373  168.6049 C.ar    1  UNL1        0.0369
     23 C         142.8836  138.2455  170.2423 C.3     1  UNL1        0.2525
     24 O         143.3132  139.6780  170.3565 O.3     1  UNL1       -0.4714
@<TRIPOS>BOND
     1    23    24    1
     2    24    17    1
     3    17    18   ar
     4    18    19   ar
     5    19    20   ar
     6    20    21   ar
     7    21     1    1
     8     1     2   ar
     9     2     3   ar
    10     3     4   ar
    11     4     5   ar
    12     5     7    1
    13     7     8    1
    14     7     9    1
    15     9    10    2
    16    10    11    1
    17    10    12    1
    18    12    13    1
    19    12    14    2
    20     5     6   ar
    21    21    22   ar
    22    22    17   ar
    23     6     1   ar
    24    14     7    1
    25    13    15    1
    26    13    16    1
@<TRIPOS>MOLECULE
*****
 24 26 0 0 0
SMALL
GASTEIGER

@<TRIPOS>ATOM
      1 C         139.3788  139.2525  165.3121 C.ar    1  UNL1       -0.0000
      2 C         138.2639  138.7702  166.1922 C.ar    1  UNL1       -0.0000
      3 C         138.2391  139.1449  167.6444 C.ar    1  UNL1       -0.0001
      4 C         139.3292  140.0019  168.2166 C.ar    1  UNL1        0.0017
      5 C         140.4440  140.4842  167.3365 C.ar    1  UNL1        0.0437
      6 C         140.4688  140.1095  165.8843 C.ar    1  UNL1        0.0017
      7 C         141.5341  141.3412  167.9086 C.3     1  UNL1        0.2769
      8 C         141.1391  142.2954  166.8208 C.3     1  UNL1        0.0847
      9 N         142.5415  142.3977  168.2533 N.2     1  UNL1       -0.2227
     10 C         143.3313  141.9172  169.4346 C.2     1  UNL1        0.1396
     11 C         144.4449  142.6598  170.1117 C.3     1  UNL1        0.0597
     12 C         142.8119  140.5638  169.8200 C.2     1  UNL1        0.3285
     13 N         143.3150  139.7153  170.9500 N.pl3   1  UNL1       -0.2454
     14 N         141.7012  140.2078  168.8768 N.2     1  UNL1       -0.0450
     15 H         144.0528  140.0374  171.5168 H       1  UNL1        0.2885
     16 H         142.9075  138.8364  171.1249 H       1  UNL1        0.2885
     17 C         140.6973  138.0019  161.7840 C.ar    1  UNL1        0.1387
     18 C         139.4533  138.1284  160.9554 C.ar    1  UNL1        0.0369
     19 C         138.1845  138.6295  161.5791 C.ar    1  UNL1        0.0031
     20 C         138.1596  139.0042  163.0313 C.ar    1  UNL1        0.0002
     21 C         139.4036  138.8778  163.8598 C.ar    1  UNL1        0.0030
     22 C         140.6724  138.3766  163.2362 C.ar    1  UNL1        0.0369
     23 C         143.2933  137.9440  161.7005 C.3     1  UNL1        0.2525
     24 O         141.9661  137.5008  161.1603 O.3     1  UNL1       -0.4714
@<TRIPOS>BOND
     1    23    24    1
     2    24    17    1
     3    17    18   ar
     4    18    19   ar
     5    19    20   ar
     6    20    21   ar
     7    21     1    1
     8     1     2   ar
     9     2     3   ar
    10     3     4   ar
    11     4     5   ar
    12     5     7    1
    13     7     8    1
    14     7     9    1
    15     9    10    2
    16    10    11    1
    17    10    12    1
    18    12    13    1
    19    12    14    2
    20     5     6   ar
    21    21    22   ar
    22    22    17   ar
    23     6     1   ar
    24    14     7    1
    25    13    15    1
    26    13    16    1
@<TRIPOS>MOLECULE
*****
 24 26 0 0 0
SMALL
GASTEIGER

@<TRIPOS>ATOM
      1 C         140.9186  138.9143  164.3552 C.ar    1  UNL1       -0.0000
      2 C         139.8019  137.9133  164.3287 C.ar    1  UNL1       -0.0000
      3 C         138.7479  137.9370  165.3959 C.ar    1  UNL1       -0.0001
      4 C         138.8108  138.9618  166.4894 C.ar    1  UNL1        0.0017
      5 C         139.9277  139.9628  166.5159 C.ar    1  UNL1        0.0437
      6 C         140.9815  139.9391  165.4488 C.ar    1  UNL1        0.0017
      7 C         139.9906  140.9876  167.6095 C.3     1  UNL1        0.2769
      8 C         140.1664  141.9556  166.4772 C.3     1  UNL1        0.0847
      9 N         140.0903  142.2147  168.4663 N.2     1  UNL1       -0.2227
     10 C         139.9629  141.7908  169.8996 C.2     1  UNL1        0.1396
     11 C         140.0063  142.6969  171.0942 C.3     1  UNL1        0.0597
     12 C         139.7846  140.3017  169.9285 C.2     1  UNL1        0.3285
     13 N         139.6183  139.4574  171.1570 N.pl3   1  UNL1       -0.2454
     14 N         139.8017  139.8053  168.5131 N.2     1  UNL1       -0.0450
     15 H         139.6204  139.8778  172.0473 H       1  UNL1        0.2885
     16 H         139.5071  138.4828  171.0732 H       1  UNL1        0.2885
     17 C         144.1051  139.9094  162.2088 C.ar    1  UNL1        0.1387
     18 C         144.0803  138.8434  161.1539 C.ar    1  UNL1        0.0369
     19 C         143.0017  137.8010  161.1660 C.ar    1  UNL1        0.0031
     20 C         141.9479  137.8247  162.2331 C.ar    1  UNL1        0.0002
     21 C         141.9726  138.8907  163.2880 C.ar    1  UNL1        0.0030
     22 C         143.0512  139.9330  163.2759 C.ar    1  UNL1        0.0369
     23 C         145.6781  141.5344  163.4875 C.3     1  UNL1        0.2525
     24 O         145.1837  140.9517  162.1967 O.3     1  UNL1       -0.4714
@<TRIPOS>BOND
     1    23    24    1
     2    24    17    1
     3    17    18   ar
     4    18    19   ar
     5    19    20   ar
     6    20    21   ar
     7    21     1    1
     8     1     2   ar
     9     2     3   ar
    10     3     4   ar
    11     4     5   ar
    12     5     7    1
    13     7     8    1
    14     7     9    1
    15     9    10    2
    16    10    11    1
    17    10    12    1
    18    12    13    1
    19    12    14    2
    20     5     6   ar
    21    21    22   ar
    22    22    17   ar
    23     6     1   ar
    24    14     7    1
    25    13    15    1
    26    13    16    1
@<TRIPOS>MOLECULE
*****
 24 26 0 0 0
SMALL
GASTEIGER

@<TRIPOS>ATOM
      1 C         141.6555  142.4297  166.6288 C.ar    1  UNL1       -0.0000
      2 C         143.1511  142.3982  166.7383 C.ar    1  UNL1       -0.0000
      3 C         143.9953  143.0055  165.6572 C.ar    1  UNL1       -0.0001
      4 C         143.3438  143.6442  164.4666 C.ar    1  UNL1        0.0017
      5 C         141.8480  143.6756  164.3571 C.ar    1  UNL1        0.0437
      6 C         141.0040  143.0684  165.4382 C.ar    1  UNL1        0.0017
      7 C         141.1965  144.3144  163.1665 C.3     1  UNL1        0.2769
      8 C         140.2089  144.8202  164.1759 C.3     1  UNL1        0.0847
      9 N         140.3384  145.0588  162.1870 N.2     1  UNL1       -0.2227
     10 C         140.9320  144.8796  160.8211 C.2     1  UNL1        0.1396
     11 C         140.3950  145.4546  159.5440 C.3     1  UNL1        0.0597
     12 C         142.1568  144.0243  160.9565 C.2     1  UNL1        0.3285
     13 N         143.0597  143.5940  159.8386 N.pl3   1  UNL1       -0.2454
     14 N         142.3203  143.6750  162.4061 N.2     1  UNL1       -0.0450
     15 H         142.8682  143.8759  158.9150 H       1  UNL1        0.2885
     16 H         143.8436  143.0296  160.0285 H       1  UNL1        0.2885
     17 C         139.0580  140.0645  168.4752 C.ar    1  UNL1        0.1387
     18 C         139.1231  140.6078  169.8718 C.ar    1  UNL1        0.0369
     19 C         140.0323  141.7583  170.1875 C.ar    1  UNL1        0.0031
     20 C         140.8764  142.3656  169.1065 C.ar    1  UNL1        0.0002
     21 C         140.8114  141.8224  167.7099 C.ar    1  UNL1        0.0030
     22 C         139.9022  140.6718  167.3942 C.ar    1  UNL1        0.0369
     23 C         137.8441  138.5686  166.7321 C.3     1  UNL1        0.2525
     24 O         138.1488  138.9140  168.1596 O.3     1  UNL1       -0.4714
@<TRIPOS>BOND
     1    23    24    1
     2    24    17    1
     3    17    18   ar
     4    18    19   ar
     5    19    20   ar
     6    20    21   ar
     7    21     1    1
     8     1     2   ar
     9     2     3   ar
    10     3     4   ar
    11     4     5   ar
    12     5     7    1
    13     7     8    1
    14     7     9    1
    15     9    10    2
    16    10    11    1
    17    10    12    1
    18    12    13    1
    19    12    14    2
    20     5     6   ar
    21    21    22   ar
    22    22    17   ar
    23     6     1   ar
    24    14     7    1
    25    13    15    1
    26    13    16    1
@<TRIPOS>MOLECULE
*****
 24 26 0 0 0
SMALL
GASTEIGER

@<TRIPOS>ATOM
      1 C         138.8912  140.7875  165.0255 C.ar    1  UNL1       -0.0000
      2 C         138.0159  139.6639  165.4961 C.ar    1  UNL1       -0.0000
      3 C         138.2148  139.0803  166.8636 C.ar    1  UNL1       -0.0001
      4 C         139.2890  139.6204  167.7604 C.ar    1  UNL1        0.0017
      5 C         140.1644  140.7440  167.2898 C.ar    1  UNL1        0.0437
      6 C         139.9654  141.3275  165.9224 C.ar    1  UNL1        0.0017
      7 C         141.2386  141.2840  168.1867 C.3     1  UNL1        0.2769
      8 C         142.0452  140.1403  167.6470 C.3     1  UNL1        0.0847
      9 N         142.4814  141.5849  168.9708 N.2     1  UNL1       -0.2227
     10 C         142.2183  142.8017  169.8076 C.2     1  UNL1        0.1396
     11 C         143.1901  143.4531  170.7464 C.3     1  UNL1        0.0597
     12 C         140.8129  143.2528  169.5407 C.2     1  UNL1        0.3285
     13 N         140.1325  144.4345  170.1658 N.pl3   1  UNL1       -0.2454
     14 N         140.2074  142.3148  168.5389 N.2     1  UNL1       -0.0450
     15 H         140.6157  144.9933  170.8165 H       1  UNL1        0.2885
     16 H         139.2028  144.6512  169.9252 H       1  UNL1        0.2885
     17 C         138.6902  143.4247  162.0667 C.ar    1  UNL1        0.1387
     18 C         138.2945  142.5382  160.9233 C.ar    1  UNL1        0.0369
     19 C         138.0978  141.0682  161.1472 C.ar    1  UNL1        0.0031
     20 C         138.2967  140.4846  162.5146 C.ar    1  UNL1        0.0002
     21 C         138.6923  141.3711  163.6580 C.ar    1  UNL1        0.0030
     22 C         138.8890  142.8411  163.4341 C.ar    1  UNL1        0.0369
     23 C         140.0058  145.6157  162.5344 C.3     1  UNL1        0.2525
     24 O         138.8869  144.8948  161.8428 O.3     1  UNL1       -0.4714
@<TRIPOS>BOND
     1    23    24    1
     2    24    17    1
     3    17    18   ar
     4    18    19   ar
     5    19    20   ar
     6    20    21   ar
     7    21     1    1
     8     1     2   ar
     9     2     3   ar
    10     3     4   ar
    11     4     5   ar
    12     5     7    1
    13     7     8    1
    14     7     9    1
    15     9    10    2
    16    10    11    1
    17    10    12    1
    18    12    13    1
    19    12    14    2
    20     5     6   ar
    21    21    22   ar
    22    22    17   ar
    23     6     1   ar
    24    14     7    1
    25    13    15    1
    26    13    16    1
@<TRIPOS>MOLECULE
*****
 24 26 0 0 0
SMALL
GASTEIGER

@<TRIPOS>ATOM
      1 C         139.8280  140.8581  166.4322 C.ar    1  UNL1       -0.0000
      2 C         139.0660  139.5996  166.1400 C.ar    1  UNL1       -0.0000
      3 C         138.2027  139.5125  164.9163 C.ar    1  UNL1       -0.0001
      4 C         138.1015  140.6839  163.9850 C.ar    1  UNL1        0.0017
      5 C         138.8636  141.9425  164.2772 C.ar    1  UNL1        0.0437
      6 C         139.7268  142.0295  165.5008 C.ar    1  UNL1        0.0017
      7 C         138.7624  143.1139  163.3459 C.3     1  UNL1        0.2769
      8 C         137.5141  142.4296  162.8732 C.3     1  UNL1        0.0847
      9 N         138.4003  144.1423  162.3157 N.2     1  UNL1       -0.2227
     10 C         139.4460  145.2174  162.3464 C.2     1  UNL1        0.1396
     11 C         139.4777  146.4415  161.4800 C.3     1  UNL1        0.0597
     12 C         140.4543  144.8534  163.3955 C.2     1  UNL1        0.3285
     13 N         141.6715  145.6496  163.7624 N.pl3   1  UNL1       -0.2454
     14 N         140.0319  143.5534  164.0132 N.2     1  UNL1       -0.0450
     15 H         141.8650  146.4954  163.2973 H       1  UNL1        0.2885
     16 H         142.2767  145.3263  164.4684 H       1  UNL1        0.2885
     17 C         141.4657  142.2315  169.7761 C.ar    1  UNL1        0.1387
     18 C         142.4177  141.1194  170.1031 C.ar    1  UNL1        0.0369
     19 C         142.5065  139.9202  169.2064 C.ar    1  UNL1        0.0031
     20 C         141.6432  139.8330  167.9828 C.ar    1  UNL1        0.0002
     21 C         140.6913  140.9451  167.6559 C.ar    1  UNL1        0.0030
     22 C         140.6025  142.1443  168.5525 C.ar    1  UNL1        0.0369
     23 C         140.4820  144.5771  170.3057 C.3     1  UNL1        0.2525
     24 O         141.3769  143.4307  170.6728 O.3     1  UNL1       -0.4714
@<TRIPOS>BOND
     1    23    24    1
     2    24    17    1
     3    17    18   ar
     4    18    19   ar
     5    19    20   ar
     6    20    21   ar
     7    21     1    1
     8     1     2   ar
     9     2     3   ar
    10     3     4   ar
    11     4     5   ar
    12     5     7    1
    13     7     8    1
    14     7     9    1
    15     9    10    2
    16    10    11    1
    17    10    12    1
    18    12    13    1
    19    12    14    2
    20     5     6   ar
    21    21    22   ar
    22    22    17   ar
    23     6     1   ar
    24    14     7    1
    25    13    15    1
    26    13    16    1
@<TRIPOS>MOLECULE
*****
 24 26 0 0 0
SMALL
GASTEIGER

@<TRIPOS>ATOM
      1 C         142.1774  142.3553  165.7978 C.ar    1  UNL1       -0.0000
      2 C         143.5090  142.7162  166.3863 C.ar    1  UNL1       -0.0000
      3 C         144.4925  143.5145  165.5829 C.ar    1  UNL1       -0.0001
      4 C         144.1443  143.9518  164.1909 C.ar    1  UNL1        0.0017
      5 C         142.8126  143.5909  163.6024 C.ar    1  UNL1        0.0437
      6 C         141.8291  142.7926  164.4059 C.ar    1  UNL1        0.0017
      7 C         142.4644  144.0282  162.2105 C.3     1  UNL1        0.2769
      8 C         143.8198  143.4838  161.8693 C.3     1  UNL1        0.0847
      9 N         142.3996  144.3517  160.7473 N.2     1  UNL1       -0.2227
     10 C         141.0768  145.0047  160.4751 C.2     1  UNL1        0.1396
     11 C         140.5919  145.4921  159.1419 C.3     1  UNL1        0.0597
     12 C         140.3242  145.0847  161.7701 C.2     1  UNL1        0.3285
     13 N         138.9545  145.6662  161.9594 N.pl3   1  UNL1       -0.2454
     14 N         141.1817  144.4812  162.8427 N.2     1  UNL1       -0.0450
     15 H         138.4682  146.0409  161.1897 H       1  UNL1        0.2885
     16 H         138.5418  145.6731  162.8532 H       1  UNL1        0.2885
     17 C         139.8936  141.1593  168.8151 C.ar    1  UNL1        0.1387
     18 C         139.2269  139.9605  168.2081 C.ar    1  UNL1        0.0369
     19 C         139.5437  139.5600  166.7977 C.ar    1  UNL1        0.0031
     20 C         140.5271  140.3582  165.9943 C.ar    1  UNL1        0.0002
     21 C         141.1938  141.5570  166.6013 C.ar    1  UNL1        0.0030
     22 C         140.8771  141.9575  168.0117 C.ar    1  UNL1        0.0369
     23 C         139.8296  142.9666  170.6804 C.3     1  UNL1        0.2525
     24 O         139.5768  141.5598  170.2255 O.3     1  UNL1       -0.4714
@<TRIPOS>BOND
     1    23    24    1
     2    24    17    1
     3    17    18   ar
     4    18    19   ar
     5    19    20   ar
     6    20    21   ar
     7    21     1    1
     8     1     2   ar
     9     2     3   ar
    10     3     4   ar
    11     4     5   ar
    12     5     7    1
    13     7     8    1
    14     7     9    1
    15     9    10    2
    16    10    11    1
    17    10    12    1
    18    12    13    1
    19    12    14    2
    20     5     6   ar
    21    21    22   ar
    22    22    17   ar
    23     6     1   ar
    24    14     7    1
    25    13    15    1
    26    13    16    1
@<TRIPOS>MOLECULE
*****
 24 26 0 0 0
SMALL
GASTEIGER

@<TRIPOS>ATOM
      1 C         138.7811  141.7041  164.0938 C.ar    1  UNL1       -0.0000
      2 C         138.0442  142.9960  163.8986 C.ar    1  UNL1       -0.0000
      3 C         138.3327  144.1663  164.7915 C.ar    1  UNL1       -0.0001
      4 C         139.3580  144.0447  165.8796 C.ar    1  UNL1        0.0017
      5 C         140.0948  142.7527  166.0748 C.ar    1  UNL1        0.0437
      6 C         139.8064  141.5825  165.1819 C.ar    1  UNL1        0.0017
      7 C         141.1201  142.6311  167.1629 C.3     1  UNL1        0.2769
      8 C         141.9790  142.0602  166.0736 C.3     1  UNL1        0.0847
      9 N         142.3250  142.3901  168.0233 N.2     1  UNL1       -0.2227
     10 C         141.9964  142.8375  169.4168 C.2     1  UNL1        0.1396
     11 C         142.9146  142.7779  170.6015 C.3     1  UNL1        0.0597
     12 C         140.5885  143.3550  169.4176 C.2     1  UNL1        0.3285
     13 N         139.8516  143.9038  170.6033 N.pl3   1  UNL1       -0.2454
     14 N         140.0469  143.2274  168.0247 N.2     1  UNL1       -0.0450
     15 H         140.2946  143.9468  171.4814 H       1  UNL1        0.2885
     16 H         138.9249  144.2208  170.5034 H       1  UNL1        0.2885
     17 C         137.6656  139.5892  160.9263 C.ar    1  UNL1        0.1387
     18 C         137.9157  138.1933  161.4151 C.ar    1  UNL1        0.0369
     19 C         138.4543  137.9677  162.7968 C.ar    1  UNL1        0.0031
     20 C         138.7427  139.1379  163.6897 C.ar    1  UNL1        0.0002
     21 C         138.4926  140.5338  163.2009 C.ar    1  UNL1        0.0030
     22 C         137.9540  140.7594  161.8192 C.ar    1  UNL1        0.0369
     23 C         137.9350  140.5825  158.5408 C.3     1  UNL1        0.2525
     24 O         137.1270  139.8148  159.5447 O.3     1  UNL1       -0.4714
@<TRIPOS>BOND
     1    23    24    1
     2    24    17    1
     3    17    18   ar
     4    18    19   ar
     5    19    20   ar
     6    20    21   ar
     7    21     1    1
     8     1     2   ar
     9     2     3   ar
    10     3     4   ar
    11     4     5   ar
    12     5     7    1
    13     7     8    1
    14     7     9    1
    15     9    10    2
    16    10    11    1
    17    10    12    1
    18    12    13    1
    19    12    14    2
    20     5     6   ar
    21    21    22   ar
    22    22    17   ar
    23     6     1   ar
    24    14     7    1
    25    13    15    1
    26    13    16    1
