@<TRIPOS>MOLECULE
*****
 37 40 0 0 0
SMALL
GASTEIGER

@<TRIPOS>ATOM
      1 C         143.1511  140.2989  161.5392 C.3     1  UNL1        0.0954
      2 C         142.9516  139.8488  160.1223 C.ar    1  UNL1       -0.0045
      3 C         142.7474  138.3939  159.8192 C.ar    1  UNL1       -0.0027
      4 C         142.5479  137.9438  158.4023 C.ar    1  UNL1       -0.0003
      5 C         142.5525  138.9486  157.2885 C.ar    1  UNL1       -0.0000
      6 C         142.7567  140.4033  157.5916 C.ar    1  UNL1       -0.0003
      7 C         142.9562  140.8534  159.0085 C.ar    1  UNL1       -0.0027
      8 N         142.0214  140.9416  162.2881 N.am    1  UNL1       -0.3022
      9 C         141.8753  142.4344  162.2887 C.2     1  UNL1        0.2222
     10 O         142.8589  143.2846  161.5405 O.2     1  UNL1       -0.2751
     11 H         141.3759  140.3836  162.7792 H       1  UNL1        0.1497
     12 C         140.7457  143.0771  163.0376 C.3     1  UNL1        0.0769
     13 C         141.0354  144.0242  164.1641 C.3     1  UNL1        0.0147
     14 C         139.9057  144.6669  164.9130 C.3     1  UNL1        0.0671
     15 C         138.4863  144.3625  164.5354 C.3     1  UNL1        0.2640
     16 F         136.9867  144.3903  164.5508 F       1  UNL1       -0.2043
     17 F         138.2552  145.3192  165.6672 F       1  UNL1       -0.2043
     18 C         138.1966  143.4154  163.4088 C.3     1  UNL1        0.0671
     19 C         139.3262  142.7727  162.6600 C.3     1  UNL1        0.0147
     20 C         144.4802  140.1062  162.2072 C.3     1  UNL1        0.0401
     21 C         144.7725  140.7935  163.5081 C.3     1  UNL1        0.0595
     22 C         145.9859  141.6654  163.6397 C.3     1  UNL1        0.0174
     23 C         142.0086  140.2397  167.0158 C.3     1  UNL1        0.0905
     24 C         142.4088  139.0584  166.1825 C.3     1  UNL1        0.0400
     25 C         143.3300  139.2431  165.0133 C.3     1  UNL1        0.0740
     26 N         143.8511  140.6089  164.6774 N.3     1  UNL1       -0.2738
     27 C         143.4510  141.7902  165.5107 C.3     1  UNL1        0.0740
     28 C         142.5297  141.6056  166.6799 C.3     1  UNL1        0.0400
     29 C         142.8663  140.3104  170.1637 C.3     1  UNL1        0.0738
     30 C         141.4815  140.0876  169.6320 C.ar    1  UNL1        0.1433
     31 N         140.2479  139.8582  170.4539 N.ar    1  UNL1       -0.1337
     32 N         139.0911  139.6839  169.5149 N.ar    1  UNL1       -0.1337
     33 C         139.6099  139.8056  168.1128 C.ar    1  UNL1        0.1425
     34 N         141.0873  140.0551  168.1851 N.ar    1  UNL1       -0.3039
     35 C         138.7945  139.6970  166.8585 C.3     1  UNL1        0.0588
     36 C         138.9081  140.7501  165.7964 C.3     1  UNL1        0.0080
     37 C         137.8654  138.5351  166.6662 C.3     1  UNL1        0.0080
@<TRIPOS>BOND
     1    29    30    1
     2    30    31   ar
     3    31    32   ar
     4    32    33   ar
     5    33    35    1
     6    35    36    1
     7    35    37    1
     8    33    34   ar
     9    34    23    1
    10    23    24    1
    11    24    25    1
    12    25    26    1
    13    26    21    1
    14    21    22    1
    15    21    20    1
    16     1    20    1
    17     1     8    1
    18     8     9   am
    19     9    10    2
    20     9    12    1
    21    12    13    1
    22    13    14    1
    23    14    15    1
    24    15    16    1
    25    15    17    1
    26    15    18    1
    27    18    19    1
    28     1     2    1
    29     2     3   ar
    30     3     4   ar
    31     4     5   ar
    32     5     6   ar
    33     6     7   ar
    34    26    27    1
    35    27    28    1
    36    34    30   ar
    37    28    23    1
    38    19    12    1
    39     7     2   ar
    40     8    11    1
@<TRIPOS>MOLECULE
*****
 37 40 0 0 0
SMALL
GASTEIGER

@<TRIPOS>ATOM
      1 C         141.8275  141.4791  162.3672 C.3     1  UNL1        0.0954
      2 C         142.3748  140.8602  161.1152 C.ar    1  UNL1       -0.0045
      3 C         143.3282  141.6321  160.2519 C.ar    1  UNL1       -0.0027
      4 C         143.8756  141.0133  158.9999 C.ar    1  UNL1       -0.0003
      5 C         143.4696  139.6225  158.6113 C.ar    1  UNL1       -0.0000
      6 C         142.5162  138.8507  159.4746 C.ar    1  UNL1       -0.0003
      7 C         141.9689  139.4695  160.7266 C.ar    1  UNL1       -0.0027
      8 N         141.1969  140.6138  163.4178 N.am    1  UNL1       -0.3022
      9 C         139.7114  140.4057  163.4257 C.2     1  UNL1        0.2222
     10 O         138.8565  141.0630  162.3830 O.2     1  UNL1       -0.2751
     11 H         141.7580  140.1824  164.1021 H       1  UNL1        0.1497
     12 C         139.0809  139.5405  164.4763 C.3     1  UNL1        0.0769
     13 C         139.1202  138.0471  164.3408 C.3     1  UNL1        0.0147
     14 C         138.4896  137.1819  165.3914 C.3     1  UNL1        0.0671
     15 C         137.8199  137.8100  166.5775 C.3     1  UNL1        0.2640
     16 F         137.0737  137.9345  167.8728 F       1  UNL1       -0.2043
     17 F         137.6000  136.3599  166.8918 F       1  UNL1       -0.2043
     18 C         137.7806  139.3033  166.7130 C.3     1  UNL1        0.0671
     19 C         138.4111  140.1686  165.6625 C.3     1  UNL1        0.0147
     20 C         141.9107  142.9631  162.5686 C.3     1  UNL1        0.0401
     21 C         142.6956  143.5211  163.7186 C.3     1  UNL1        0.0595
     22 C         143.8610  144.4295  163.4606 C.3     1  UNL1        0.0174
     23 C         141.5541  142.4699  167.9425 C.3     1  UNL1        0.0905
     24 C         142.9903  142.4028  167.5149 C.3     1  UNL1        0.0400
     25 C         143.3708  142.7532  166.1070 C.3     1  UNL1        0.0740
     26 N         142.3151  143.1707  165.1266 N.3     1  UNL1       -0.2738
     27 C         140.8789  143.2378  165.5542 C.3     1  UNL1        0.0740
     28 C         140.4984  142.8874  166.9621 C.3     1  UNL1        0.0400
     29 C         140.3000  144.5139  170.1559 C.3     1  UNL1        0.0738
     30 C         140.5971  143.0590  170.3679 C.ar    1  UNL1        0.1433
     31 N         140.3700  142.2882  171.6345 N.ar    1  UNL1       -0.1337
     32 N         140.8061  140.8722  171.3999 N.ar    1  UNL1       -0.1337
     33 C         141.3027  140.7680  169.9884 C.ar    1  UNL1        0.1425
     34 N         141.1736  142.1195  169.3505 N.ar    1  UNL1       -0.3039
     35 C         141.8350  139.5297  169.3302 C.3     1  UNL1        0.0588
     36 C         142.7084  138.5860  170.1026 C.3     1  UNL1        0.0080
     37 C         141.4939  139.2349  167.8996 C.3     1  UNL1        0.0080
@<TRIPOS>BOND
     1    29    30    1
     2    30    31   ar
     3    31    32   ar
     4    32    33   ar
     5    33    35    1
     6    35    36    1
     7    35    37    1
     8    33    34   ar
     9    34    23    1
    10    23    24    1
    11    24    25    1
    12    25    26    1
    13    26    21    1
    14    21    22    1
    15    21    20    1
    16     1    20    1
    17     1     8    1
    18     8     9   am
    19     9    10    2
    20     9    12    1
    21    12    13    1
    22    13    14    1
    23    14    15    1
    24    15    16    1
    25    15    17    1
    26    15    18    1
    27    18    19    1
    28     1     2    1
    29     2     3   ar
    30     3     4   ar
    31     4     5   ar
    32     5     6   ar
    33     6     7   ar
    34    26    27    1
    35    27    28    1
    36    34    30   ar
    37    28    23    1
    38    19    12    1
    39     7     2   ar
    40     8    11    1
@<TRIPOS>MOLECULE
*****
 37 40 0 0 0
SMALL
GASTEIGER

@<TRIPOS>ATOM
      1 C         140.7193  143.9336  161.3442 C.3     1  UNL1        0.0954
      2 C         140.4416  144.1574  159.8872 C.ar    1  UNL1       -0.0045
      3 C         141.0169  145.3541  159.1892 C.ar    1  UNL1       -0.0027
      4 C         140.7391  145.5779  157.7322 C.ar    1  UNL1       -0.0003
      5 C         139.8861  144.6050  156.9733 C.ar    1  UNL1       -0.0000
      6 C         139.3108  143.4085  157.6712 C.ar    1  UNL1       -0.0003
      7 C         139.5886  143.1846  159.1282 C.ar    1  UNL1       -0.0027
      8 N         140.3906  142.6135  161.9762 N.am    1  UNL1       -0.3022
      9 C         141.4112  141.5143  161.9911 C.2     1  UNL1        0.2222
     10 O         142.7604  141.7352  161.3741 O.2     1  UNL1       -0.2751
     11 H         139.5051  142.4685  162.3812 H       1  UNL1        0.1497
     12 C         141.0825  140.1943  162.6231 C.3     1  UNL1        0.0769
     13 C         142.1587  139.3980  163.2996 C.3     1  UNL1        0.0147
     14 C         141.8299  138.0779  163.9316 C.3     1  UNL1        0.0671
     15 C         140.4251  137.5542  163.8871 C.3     1  UNL1        0.2640
     16 F         139.2525  136.6442  164.1036 F       1  UNL1       -0.2043
     17 F         141.0940  136.4418  164.6388 F       1  UNL1       -0.2043
     18 C         139.3489  138.3505  163.2106 C.3     1  UNL1        0.0671
     19 C         139.6776  139.6705  162.5786 C.3     1  UNL1        0.0147
     20 C         141.3257  145.0298  162.1691 C.3     1  UNL1        0.0401
     21 C         142.2517  144.6928  163.3000 C.3     1  UNL1        0.0595
     22 C         143.6825  145.1409  163.2568 C.3     1  UNL1        0.0174
     23 C         140.7370  142.3373  166.8224 C.3     1  UNL1        0.0905
     24 C         139.8415  143.3311  166.1438 C.3     1  UNL1        0.0400
     25 C         140.3465  144.1162  164.9697 C.3     1  UNL1        0.0740
     26 N         141.7468  143.9076  164.4742 N.3     1  UNL1       -0.2738
     27 C         142.6422  142.9138  165.1528 C.3     1  UNL1        0.0740
     28 C         142.1373  142.1286  166.3269 C.3     1  UNL1        0.0400
     29 C         139.0627  139.5396  166.6823 C.3     1  UNL1        0.0738
     30 C         139.4625  140.2662  167.9322 C.ar    1  UNL1        0.1433
     31 N         139.1630  139.8344  169.3371 N.ar    1  UNL1       -0.1337
     32 N         139.7474  140.8534  170.2699 N.ar    1  UNL1       -0.1337
     33 C         140.4081  141.9150  169.4414 C.ar    1  UNL1        0.1425
     34 N         140.2321  141.5521  167.9966 N.ar    1  UNL1       -0.3039
     35 C         141.1199  143.1268  169.9656 C.3     1  UNL1        0.0588
     36 C         140.3727  144.4142  170.1505 C.3     1  UNL1        0.0080
     37 C         142.5791  143.0513  170.3050 C.3     1  UNL1        0.0080
@<TRIPOS>BOND
     1    29    30    1
     2    30    31   ar
     3    31    32   ar
     4    32    33   ar
     5    33    35    1
     6    35    36    1
     7    35    37    1
     8    33    34   ar
     9    34    23    1
    10    23    24    1
    11    24    25    1
    12    25    26    1
    13    26    21    1
    14    21    22    1
    15    21    20    1
    16     1    20    1
    17     1     8    1
    18     8     9   am
    19     9    10    2
    20     9    12    1
    21    12    13    1
    22    13    14    1
    23    14    15    1
    24    15    16    1
    25    15    17    1
    26    15    18    1
    27    18    19    1
    28     1     2    1
    29     2     3   ar
    30     3     4   ar
    31     4     5   ar
    32     5     6   ar
    33     6     7   ar
    34    26    27    1
    35    27    28    1
    36    34    30   ar
    37    28    23    1
    38    19    12    1
    39     7     2   ar
    40     8    11    1
@<TRIPOS>MOLECULE
*****
 37 40 0 0 0
SMALL
GASTEIGER

@<TRIPOS>ATOM
      1 C         142.6813  141.9785  166.0581 C.3     1  UNL1        0.0954
      2 C         142.7946  141.5012  167.4756 C.ar    1  UNL1       -0.0045
      3 C         142.3830  140.1033  167.8315 C.ar    1  UNL1       -0.0027
      4 C         142.4963  139.6261  169.2490 C.ar    1  UNL1       -0.0003
      5 C         143.0212  140.5467  170.3107 C.ar    1  UNL1       -0.0000
      6 C         143.4328  141.9445  169.9547 C.ar    1  UNL1       -0.0003
      7 C         143.3195  142.4218  168.5372 C.ar    1  UNL1       -0.0027
      8 N         141.5114  141.5606  165.2173 N.am    1  UNL1       -0.3022
      9 C         141.5730  140.2877  164.4261 C.2     1  UNL1        0.2222
     10 O         142.8044  139.4326  164.4758 O.2     1  UNL1       -0.2751
     11 H         140.7032  142.1218  165.1847 H       1  UNL1        0.1497
     12 C         140.4032  139.8699  163.5854 C.3     1  UNL1        0.0769
     13 C         139.9351  138.4450  163.6067 C.3     1  UNL1        0.0147
     14 C         138.7652  138.0272  162.7659 C.3     1  UNL1        0.0671
     15 C         138.0635  139.0343  161.9038 C.3     1  UNL1        0.2640
     16 F         137.0806  139.6168  160.9319 F       1  UNL1       -0.2043
     17 F         137.2541  137.8117  161.5877 F       1  UNL1       -0.2043
     18 C         138.5316  140.4592  161.8825 C.3     1  UNL1        0.0671
     19 C         139.7014  140.8770  162.7232 C.3     1  UNL1        0.0147
     20 C         143.7377  142.8736  165.4813 C.3     1  UNL1        0.0401
     21 C         143.4962  143.5758  164.1781 C.3     1  UNL1        0.0595
     22 C         143.1990  145.0459  164.1621 C.3     1  UNL1        0.0174
     23 C         143.6630  141.2718  160.3162 C.3     1  UNL1        0.0905
     24 C         144.6376  140.9660  161.4147 C.3     1  UNL1        0.0400
     25 C         144.5820  141.7340  162.7019 C.3     1  UNL1        0.0740
     26 N         143.5518  142.8078  162.8907 N.3     1  UNL1       -0.2738
     27 C         142.5772  143.1136  161.7923 C.3     1  UNL1        0.0740
     28 C         142.6328  142.3456  160.5050 C.3     1  UNL1        0.0400
     29 C         145.3928  142.0843  157.6709 C.3     1  UNL1        0.0738
     30 C         144.5137  140.8773  157.8130 C.ar    1  UNL1        0.1433
     31 N         144.2753  139.8318  156.7642 N.ar    1  UNL1       -0.1337
     32 N         143.3329  138.8121  157.3318 N.ar    1  UNL1       -0.1337
     33 C         142.9889  139.2274  158.7315 C.ar    1  UNL1        0.1425
     34 N         143.7186  140.5038  159.0289 N.ar    1  UNL1       -0.3039
     35 C         142.0754  138.4950  159.6691 C.3     1  UNL1        0.0588
     36 C         140.5916  138.5331  159.4533 C.3     1  UNL1        0.0080
     37 C         142.6459  137.7244  160.8228 C.3     1  UNL1        0.0080
@<TRIPOS>BOND
     1    29    30    1
     2    30    31   ar
     3    31    32   ar
     4    32    33   ar
     5    33    35    1
     6    35    36    1
     7    35    37    1
     8    33    34   ar
     9    34    23    1
    10    23    24    1
    11    24    25    1
    12    25    26    1
    13    26    21    1
    14    21    22    1
    15    21    20    1
    16     1    20    1
    17     1     8    1
    18     8     9   am
    19     9    10    2
    20     9    12    1
    21    12    13    1
    22    13    14    1
    23    14    15    1
    24    15    16    1
    25    15    17    1
    26    15    18    1
    27    18    19    1
    28     1     2    1
    29     2     3   ar
    30     3     4   ar
    31     4     5   ar
    32     5     6   ar
    33     6     7   ar
    34    26    27    1
    35    27    28    1
    36    34    30   ar
    37    28    23    1
    38    19    12    1
    39     7     2   ar
    40     8    11    1
@<TRIPOS>MOLECULE
*****
 37 40 0 0 0
SMALL
GASTEIGER

@<TRIPOS>ATOM
      1 C         141.9817  139.9586  166.1672 C.3     1  UNL1        0.0954
      2 C         141.5017  139.9376  167.5881 C.ar    1  UNL1       -0.0045
      3 C         140.0933  140.3414  167.9100 C.ar    1  UNL1       -0.0027
      4 C         139.6133  140.3204  169.3310 C.ar    1  UNL1       -0.0003
      5 C         140.5417  139.8957  170.4301 C.ar    1  UNL1       -0.0000
      6 C         141.9499  139.4919  170.1081 C.ar    1  UNL1       -0.0003
      7 C         142.4300  139.5129  168.6872 C.ar    1  UNL1       -0.0027
      8 N         141.4087  140.9483  165.1965 N.am    1  UNL1       -0.3022
      9 C         142.0128  142.3159  165.0752 C.2     1  UNL1        0.2222
     10 O         143.1899  142.6938  165.9246 O.2     1  UNL1       -0.2751
     11 H         140.6361  140.7002  164.6390 H       1  UNL1        0.1497
     12 C         141.4397  143.3055  164.1045 C.3     1  UNL1        0.0769
     13 C         140.1308  143.9754  164.4012 C.3     1  UNL1        0.0147
     14 C         139.5578  144.9650  163.4305 C.3     1  UNL1        0.0671
     15 C         140.2936  145.2847  162.1631 C.3     1  UNL1        0.2640
     16 F         140.6135  145.9129  160.8391 F       1  UNL1       -0.2043
     17 F         139.0959  146.1728  162.0000 F       1  UNL1       -0.2043
     18 C         141.6025  144.6148  161.8664 C.3     1  UNL1        0.0671
     19 C         142.1756  143.6252  162.8371 C.3     1  UNL1        0.0147
     20 C         143.0348  138.9899  165.7169 C.3     1  UNL1        0.0401
     21 C         143.7395  139.2022  164.4099 C.3     1  UNL1        0.0595
     22 C         145.2153  139.4696  164.3884 C.3     1  UNL1        0.0174
     23 C         141.4264  139.0371  160.5535 C.3     1  UNL1        0.0905
     24 C         142.4448  140.1166  160.7716 C.3     1  UNL1        0.0400
     25 C         143.2158  140.1716  162.0570 C.3     1  UNL1        0.0740
     26 N         142.9685  139.1472  163.1244 N.3     1  UNL1       -0.2738
     27 C         141.9501  138.0677  162.9063 C.3     1  UNL1        0.0740
     28 C         141.1791  138.0127  161.6208 C.3     1  UNL1        0.0400
     29 C         142.3878  137.5706  157.8012 C.3     1  UNL1        0.0738
     30 C         141.0973  138.3080  158.0029 C.ar    1  UNL1        0.1433
     31 N         140.0220  138.5007  156.9750 N.ar    1  UNL1       -0.1337
     32 N         138.9155  139.2940  157.6047 N.ar    1  UNL1       -0.1337
     33 C         139.3070  139.5915  159.0218 C.ar    1  UNL1        0.1425
     34 N         140.6554  138.9821  159.2679 N.ar    1  UNL1       -0.3039
     35 C         138.4930  140.3629  160.0179 C.3     1  UNL1        0.0588
     36 C         138.7735  141.8181  160.2497 C.3     1  UNL1        0.0080
     37 C         137.3984  139.6791  160.7824 C.3     1  UNL1        0.0080
@<TRIPOS>BOND
     1    29    30    1
     2    30    31   ar
     3    31    32   ar
     4    32    33   ar
     5    33    35    1
     6    35    36    1
     7    35    37    1
     8    33    34   ar
     9    34    23    1
    10    23    24    1
    11    24    25    1
    12    25    26    1
    13    26    21    1
    14    21    22    1
    15    21    20    1
    16     1    20    1
    17     1     8    1
    18     8     9   am
    19     9    10    2
    20     9    12    1
    21    12    13    1
    22    13    14    1
    23    14    15    1
    24    15    16    1
    25    15    17    1
    26    15    18    1
    27    18    19    1
    28     1     2    1
    29     2     3   ar
    30     3     4   ar
    31     4     5   ar
    32     5     6   ar
    33     6     7   ar
    34    26    27    1
    35    27    28    1
    36    34    30   ar
    37    28    23    1
    38    19    12    1
    39     7     2   ar
    40     8    11    1
@<TRIPOS>MOLECULE
*****
 37 40 0 0 0
SMALL
GASTEIGER

@<TRIPOS>ATOM
      1 C         139.6754  142.4030  159.4677 C.3     1  UNL1        0.0954
      2 C         139.6003  143.2859  158.2575 C.ar    1  UNL1       -0.0045
      3 C         138.9836  142.7712  156.9906 C.ar    1  UNL1       -0.0027
      4 C         138.9085  143.6542  155.7804 C.ar    1  UNL1       -0.0003
      5 C         139.4500  145.0519  155.8370 C.ar    1  UNL1       -0.0000
      6 C         140.0667  145.5666  157.1038 C.ar    1  UNL1       -0.0003
      7 C         140.1418  144.6836  158.3140 C.ar    1  UNL1       -0.0027
      8 N         140.8113  142.5526  160.4360 N.am    1  UNL1       -0.3022
      9 C         140.6699  143.4574  161.6240 C.2     1  UNL1        0.2222
     10 O         139.3926  144.2125  161.8438 O.2     1  UNL1       -0.2751
     11 H         141.6496  142.0570  160.2917 H       1  UNL1        0.1497
     12 C         141.8058  143.6070  162.5921 C.3     1  UNL1        0.0769
     13 C         142.6710  142.4268  162.9214 C.3     1  UNL1        0.0147
     14 C         143.8069  142.5764  163.8896 C.3     1  UNL1        0.0671
     15 C         144.0775  143.9063  164.5285 C.3     1  UNL1        0.2640
     16 F         144.7270  144.9524  165.3851 F       1  UNL1       -0.2043
     17 F         145.1683  143.0894  165.1552 F       1  UNL1       -0.2043
     18 C         143.2123  145.0865  164.1993 C.3     1  UNL1        0.0671
     19 C         142.0764  144.9369  163.2311 C.3     1  UNL1        0.0147
     20 C         138.6147  141.3704  159.7098 C.3     1  UNL1        0.0401
     21 C         138.9510  140.1082  160.4472 C.3     1  UNL1        0.0595
     22 C         139.2304  138.8465  159.6858 C.3     1  UNL1        0.0174
     23 C         139.1220  140.1073  164.9440 C.3     1  UNL1        0.0905
     24 C         137.9806  140.7762  164.2370 C.3     1  UNL1        0.0400
     25 C         137.9237  140.7765  162.7381 C.3     1  UNL1        0.0740
     26 N         139.0080  140.1079  161.9462 N.3     1  UNL1       -0.2738
     27 C         140.1494  139.4390  162.6532 C.3     1  UNL1        0.0740
     28 C         140.2063  139.4387  164.1521 C.3     1  UNL1        0.0400
     29 C         137.5018  138.0821  166.9248 C.3     1  UNL1        0.0738
     30 C         138.4343  139.1761  167.3534 C.ar    1  UNL1        0.1433
     31 N         138.7857  139.5313  168.7677 N.ar    1  UNL1       -0.1337
     32 N         139.7477  140.6818  168.7314 N.ar    1  UNL1       -0.1337
     33 C         139.9907  141.0375  167.2946 C.ar    1  UNL1        0.1425
     34 N         139.1790  140.1070  166.4429 N.ar    1  UNL1       -0.3039
     35 C         140.8879  142.1317  166.7968 C.3     1  UNL1        0.0588
     36 C         140.3240  143.2417  165.9603 C.3     1  UNL1        0.0080
     37 C         142.3490  142.1159  167.1356 C.3     1  UNL1        0.0080
@<TRIPOS>BOND
     1    29    30    1
     2    30    31   ar
     3    31    32   ar
     4    32    33   ar
     5    33    35    1
     6    35    36    1
     7    35    37    1
     8    33    34   ar
     9    34    23    1
    10    23    24    1
    11    24    25    1
    12    25    26    1
    13    26    21    1
    14    21    22    1
    15    21    20    1
    16     1    20    1
    17     1     8    1
    18     8     9   am
    19     9    10    2
    20     9    12    1
    21    12    13    1
    22    13    14    1
    23    14    15    1
    24    15    16    1
    25    15    17    1
    26    15    18    1
    27    18    19    1
    28     1     2    1
    29     2     3   ar
    30     3     4   ar
    31     4     5   ar
    32     5     6   ar
    33     6     7   ar
    34    26    27    1
    35    27    28    1
    36    34    30   ar
    37    28    23    1
    38    19    12    1
    39     7     2   ar
    40     8    11    1
@<TRIPOS>MOLECULE
*****
 37 40 0 0 0
SMALL
GASTEIGER

@<TRIPOS>ATOM
      1 C         139.6912  143.2174  159.3025 C.3     1  UNL1        0.0954
      2 C         139.8222  144.0506  158.0621 C.ar    1  UNL1       -0.0045
      3 C         140.3653  145.4461  158.1499 C.ar    1  UNL1       -0.0027
      4 C         140.4963  146.2793  156.9095 C.ar    1  UNL1       -0.0003
      5 C         140.0841  145.7170  155.5813 C.ar    1  UNL1       -0.0000
      6 C         139.5411  144.3216  155.4936 C.ar    1  UNL1       -0.0003
      7 C         139.4101  143.4884  156.7340 C.ar    1  UNL1       -0.0027
      8 N         140.8189  143.1600  160.2900 N.am    1  UNL1       -0.3022
      9 C         140.7679  143.9935  161.5360 C.2     1  UNL1        0.2222
     10 O         139.5892  144.8844  161.7946 O.2     1  UNL1       -0.2751
     11 H         141.5926  142.5752  160.1203 H       1  UNL1        0.1497
     12 C         141.8956  143.9360  162.5234 C.3     1  UNL1        0.0769
     13 C         142.2049  145.1287  163.3789 C.3     1  UNL1        0.0147
     14 C         143.3326  145.0712  164.3663 C.3     1  UNL1        0.0671
     15 C         144.1510  143.8211  164.4983 C.3     1  UNL1        0.2640
     16 F         145.2038  142.8705  164.9861 F       1  UNL1       -0.2043
     17 F         144.8259  144.6836  165.5231 F       1  UNL1       -0.2043
     18 C         143.8417  142.6284  163.6428 C.3     1  UNL1        0.0671
     19 C         142.7140  142.6858  162.6554 C.3     1  UNL1        0.0147
     20 C         138.4326  142.4416  159.5555 C.3     1  UNL1        0.0401
     21 C         138.5019  141.0900  160.2023 C.3     1  UNL1        0.0595
     22 C         138.3324  139.8519  159.3727 C.3     1  UNL1        0.0174
     23 C         139.2179  140.7497  164.6319 C.3     1  UNL1        0.0905
     24 C         138.0109  141.4791  164.1212 C.3     1  UNL1        0.0400
     25 C         137.7722  141.5925  162.6447 C.3     1  UNL1        0.0740
     26 N         138.7406  140.9765  161.6789 N.3     1  UNL1       -0.2738
     27 C         139.9477  140.2472  162.1896 C.3     1  UNL1        0.0740
     28 C         140.1864  140.1338  163.6661 C.3     1  UNL1        0.0400
     29 C         140.7853  142.9234  166.4943 C.3     1  UNL1        0.0738
     30 C         140.1771  141.6354  166.9645 C.ar    1  UNL1        0.1433
     31 N         140.1825  141.1204  168.3733 N.ar    1  UNL1       -0.1337
     32 N         139.4655  139.8029  168.3880 N.ar    1  UNL1       -0.1337
     33 C         139.0169  139.5037  166.9883 C.ar    1  UNL1        0.1425
     34 N         139.4567  140.6363  166.1085 N.ar    1  UNL1       -0.3039
     35 C         138.2612  138.2858  166.5460 C.3     1  UNL1        0.0588
     36 C         137.0527  137.8340  167.3111 C.3     1  UNL1        0.0080
     37 C         138.7139  137.5197  165.3384 C.3     1  UNL1        0.0080
@<TRIPOS>BOND
     1    29    30    1
     2    30    31   ar
     3    31    32   ar
     4    32    33   ar
     5    33    35    1
     6    35    36    1
     7    35    37    1
     8    33    34   ar
     9    34    23    1
    10    23    24    1
    11    24    25    1
    12    25    26    1
    13    26    21    1
    14    21    22    1
    15    21    20    1
    16     1    20    1
    17     1     8    1
    18     8     9   am
    19     9    10    2
    20     9    12    1
    21    12    13    1
    22    13    14    1
    23    14    15    1
    24    15    16    1
    25    15    17    1
    26    15    18    1
    27    18    19    1
    28     1     2    1
    29     2     3   ar
    30     3     4   ar
    31     4     5   ar
    32     5     6   ar
    33     6     7   ar
    34    26    27    1
    35    27    28    1
    36    34    30   ar
    37    28    23    1
    38    19    12    1
    39     7     2   ar
    40     8    11    1
@<TRIPOS>MOLECULE
*****
 37 40 0 0 0
SMALL
GASTEIGER

@<TRIPOS>ATOM
      1 C         140.5975  142.5937  166.2295 C.3     1  UNL1        0.0954
      2 C         141.1890  142.6665  167.6060 C.ar    1  UNL1       -0.0045
      3 C         140.3976  143.2635  168.7318 C.ar    1  UNL1       -0.0027
      4 C         140.9891  143.3363  170.1083 C.ar    1  UNL1       -0.0003
      5 C         142.3720  142.8121  170.3590 C.ar    1  UNL1       -0.0000
      6 C         143.1634  142.2151  169.2333 C.ar    1  UNL1       -0.0003
      7 C         142.5718  142.1423  167.8568 C.ar    1  UNL1       -0.0027
      8 N         140.9428  141.4484  165.3244 N.am    1  UNL1       -0.3022
      9 C         142.1417  141.5366  164.4273 C.2     1  UNL1        0.2222
     10 O         142.9953  142.7700  164.4352 O.2     1  UNL1       -0.2751
     11 H         140.3826  140.6388  165.3191 H       1  UNL1        0.1497
     12 C         142.4870  140.3914  163.5222 C.3     1  UNL1        0.0769
     13 C         141.4225  139.7546  162.6788 C.3     1  UNL1        0.0147
     14 C         141.7679  138.6093  161.7737 C.3     1  UNL1        0.0671
     15 C         143.1777  138.1009  161.7121 C.3     1  UNL1        0.2640
     16 F         144.3606  137.2712  161.3089 F       1  UNL1       -0.2043
     17 F         142.5240  137.1760  160.7286 F       1  UNL1       -0.2043
     18 C         144.2422  138.7377  162.5555 C.3     1  UNL1        0.0671
     19 C         143.8969  139.8829  163.4605 C.3     1  UNL1        0.0147
     20 C         139.6606  143.6660  165.7581 C.3     1  UNL1        0.0401
     21 C         138.9136  143.4956  164.4686 C.3     1  UNL1        0.0595
     22 C         137.4387  143.2229  164.4866 C.3     1  UNL1        0.0174
     23 C         141.0971  143.8024  160.5458 C.3     1  UNL1        0.0905
     24 C         140.1031  142.7011  160.7667 C.3     1  UNL1        0.0400
     25 C         139.3753  142.5988  162.0743 C.3     1  UNL1        0.0740
     26 N         139.6415  143.5979  163.1610 N.3     1  UNL1       -0.2738
     27 C         140.6355  144.6993  162.9401 C.3     1  UNL1        0.0740
     28 C         141.3633  144.8016  161.6325 C.3     1  UNL1        0.0400
     29 C         140.3080  145.7632  158.0594 C.3     1  UNL1        0.0738
     30 C         141.4623  144.8060  158.0954 C.ar    1  UNL1        0.1433
     31 N         142.4565  144.5820  156.9948 N.ar    1  UNL1       -0.1337
     32 N         143.4338  143.5423  157.4575 N.ar    1  UNL1       -0.1337
     33 C         143.0435  143.1237  158.8440 C.ar    1  UNL1        0.1425
     34 N         141.8250  143.9048  159.2382 N.ar    1  UNL1       -0.3039
     35 C         143.7480  142.1033  159.6880 C.3     1  UNL1        0.0588
     36 C         144.4681  142.5280  160.9334 C.3     1  UNL1        0.0080
     37 C         143.7323  140.6581  159.2867 C.3     1  UNL1        0.0080
@<TRIPOS>BOND
     1    29    30    1
     2    30    31   ar
     3    31    32   ar
     4    32    33   ar
     5    33    35    1
     6    35    36    1
     7    35    37    1
     8    33    34   ar
     9    34    23    1
    10    23    24    1
    11    24    25    1
    12    25    26    1
    13    26    21    1
    14    21    22    1
    15    21    20    1
    16     1    20    1
    17     1     8    1
    18     8     9   am
    19     9    10    2
    20     9    12    1
    21    12    13    1
    22    13    14    1
    23    14    15    1
    24    15    16    1
    25    15    17    1
    26    15    18    1
    27    18    19    1
    28     1     2    1
    29     2     3   ar
    30     3     4   ar
    31     4     5   ar
    32     5     6   ar
    33     6     7   ar
    34    26    27    1
    35    27    28    1
    36    34    30   ar
    37    28    23    1
    38    19    12    1
    39     7     2   ar
    40     8    11    1
@<TRIPOS>MOLECULE
*****
 37 40 0 0 0
SMALL
GASTEIGER

@<TRIPOS>ATOM
      1 C         140.5324  143.3987  161.4692 C.3     1  UNL1        0.0954
      2 C         141.6590  143.5814  162.4425 C.ar    1  UNL1       -0.0045
      3 C         142.4725  142.3990  162.8787 C.ar    1  UNL1       -0.0027
      4 C         143.5991  142.5818  163.8520 C.ar    1  UNL1       -0.0003
      5 C         143.9122  143.9469  164.3892 C.ar    1  UNL1       -0.0000
      6 C         143.0987  145.1292  163.9531 C.ar    1  UNL1       -0.0003
      7 C         141.9721  144.9465  162.9797 C.ar    1  UNL1       -0.0027
      8 N         140.7384  143.7104  160.0164 N.am    1  UNL1       -0.3022
      9 C         140.3014  145.0348  159.4643 C.2     1  UNL1        0.2222
     10 O         139.6584  146.0476  160.3648 O.2     1  UNL1       -0.2751
     11 H         141.1604  143.0458  159.4254 H       1  UNL1        0.1497
     12 C         140.5074  145.3465  158.0116 C.3     1  UNL1        0.0769
     13 C         139.7301  146.4543  157.3646 C.3     1  UNL1        0.0147
     14 C         139.9361  146.7659  155.9118 C.3     1  UNL1        0.0671
     15 C         140.9194  145.9698  155.1061 C.3     1  UNL1        0.2640
     16 F         141.7306  145.5019  153.9343 F       1  UNL1       -0.2043
     17 F         140.4239  146.9151  154.0522 F       1  UNL1       -0.2043
     18 C         141.6967  144.8620  155.7531 C.3     1  UNL1        0.0671
     19 C         141.4907  144.5503  157.2058 C.3     1  UNL1        0.0147
     20 C         139.1998  142.9043  161.9486 C.3     1  UNL1        0.0401
     21 C         138.7707  143.1573  163.3635 C.3     1  UNL1        0.0595
     22 C         137.6860  144.1524  163.6517 C.3     1  UNL1        0.0174
     23 C         140.7376  140.9309  166.7435 C.3     1  UNL1        0.0905
     24 C         140.7482  142.4307  166.7268 C.3     1  UNL1        0.0400
     25 C         140.0926  143.1728  165.6001 C.3     1  UNL1        0.0740
     26 N         139.4263  142.4151  164.4902 N.3     1  UNL1       -0.2738
     27 C         139.4157  140.9153  164.5069 C.3     1  UNL1        0.0740
     28 C         140.0714  140.1732  165.6335 C.3     1  UNL1        0.0400
     29 C         143.4135  139.0765  166.5187 C.3     1  UNL1        0.0738
     30 C         142.6232  139.3363  167.7668 C.ar    1  UNL1        0.1433
     31 N         142.9241  138.7895  169.1308 N.ar    1  UNL1       -0.1337
     32 N         141.8801  139.3038  170.0771 N.ar    1  UNL1       -0.1337
     33 C         140.9340  140.1686  169.2980 C.ar    1  UNL1        0.1425
     34 N         141.3932  140.1887  167.8702 N.ar    1  UNL1       -0.3039
     35 C         139.7385  140.8871  169.8498 C.3     1  UNL1        0.0588
     36 C         138.4164  140.1843  169.9396 C.3     1  UNL1        0.0080
     37 C         139.8651  142.3086  170.3119 C.3     1  UNL1        0.0080
@<TRIPOS>BOND
     1    29    30    1
     2    30    31   ar
     3    31    32   ar
     4    32    33   ar
     5    33    35    1
     6    35    36    1
     7    35    37    1
     8    33    34   ar
     9    34    23    1
    10    23    24    1
    11    24    25    1
    12    25    26    1
    13    26    21    1
    14    21    22    1
    15    21    20    1
    16     1    20    1
    17     1     8    1
    18     8     9   am
    19     9    10    2
    20     9    12    1
    21    12    13    1
    22    13    14    1
    23    14    15    1
    24    15    16    1
    25    15    17    1
    26    15    18    1
    27    18    19    1
    28     1     2    1
    29     2     3   ar
    30     3     4   ar
    31     4     5   ar
    32     5     6   ar
    33     6     7   ar
    34    26    27    1
    35    27    28    1
    36    34    30   ar
    37    28    23    1
    38    19    12    1
    39     7     2   ar
    40     8    11    1
