@<TRIPOS>MOLECULE
*****
 19 22 0 0 0
SMALL
GASTEIGER

@<TRIPOS>ATOM
      1 C         139.4406  144.6281  162.9393 C.ar    1  UNL1        0.0067
      2 C         140.2764  144.2840  164.1363 C.ar    1  UNL1       -0.0006
      3 C         139.7783  142.9822  164.6906 C.ar    1  UNL1       -0.0052
      4 C         138.6347  142.5218  163.8362 C.ar    1  UNL1        0.0057
      5 S         138.4259  143.5391  162.7538 S.2     1  UNL1       -0.0959
      6 C         137.9311  141.2358  164.1542 C.3     1  UNL1        0.0500
      7 C         138.3712  140.4101  165.3266 C.3     1  UNL1        0.0778
      8 N         139.5148  140.8705  166.1811 N.3     1  UNL1       -0.2659
      9 C         139.9549  140.0449  167.3535 C.3     1  UNL1        0.0991
     10 C         141.0986  140.5053  168.2080 C.ar    1  UNL1       -0.0100
     11 C         141.5386  139.6796  169.3805 C.ar    1  UNL1       -0.0032
     12 C         142.6823  140.1400  170.2349 C.ar    1  UNL1       -0.0003
     13 C         143.3858  141.4261  169.9169 C.ar    1  UNL1       -0.0003
     14 C         142.9458  142.2517  168.7445 C.ar    1  UNL1       -0.0045
     15 C         141.8021  141.7913  167.8901 C.ar    1  UNL1       -0.0231
     16 C         141.3620  142.6170  166.7176 C.3     1  UNL1        0.0465
     17 C         140.2184  142.1566  165.8631 C.3     1  UNL1        0.0849
     18 C         140.2060  145.7310  160.7149 C.3     1  UNL1        0.0056
     19 C         139.5927  145.8474  162.0788 C.3     1  UNL1        0.0329
@<TRIPOS>BOND
     1    18    19    1
     2    19     1    1
     3     1     2   ar
     4     2     3   ar
     5     3     4   ar
     6     4     5   ar
     7     4     6    1
     8     6     7    1
     9     7     8    1
    10     8     9    1
    11     9    10    1
    12    10    11   ar
    13    11    12   ar
    14    12    13   ar
    15    13    14   ar
    16    14    15   ar
    17    15    16    1
    18    16    17    1
    19     5     1   ar
    20    17     8    1
    21    17     3    1
    22    15    10   ar
@<TRIPOS>MOLECULE
*****
 19 22 0 0 0
SMALL
GASTEIGER

@<TRIPOS>ATOM
      1 C         142.5894  138.1663  162.7194 C.ar    1  UNL1        0.0067
      2 C         142.7410  139.0660  163.9100 C.ar    1  UNL1       -0.0006
      3 C         141.4672  139.0082  164.6998 C.ar    1  UNL1       -0.0052
      4 C         140.5282  138.0729  163.9974 C.ar    1  UNL1        0.0057
      5 S         141.2218  137.5525  162.7734 S.2     1  UNL1       -0.0959
      6 C         139.1629  137.8159  164.5630 C.3     1  UNL1        0.0500
      7 C         138.7366  138.4942  165.8311 C.3     1  UNL1        0.0778
      8 N         139.6756  139.4296  166.5336 N.3     1  UNL1       -0.2659
      9 C         139.2493  140.1079  167.8017 C.3     1  UNL1        0.0991
     10 C         140.1883  141.0433  168.5042 C.ar    1  UNL1       -0.0100
     11 C         139.7620  141.7216  169.7723 C.ar    1  UNL1       -0.0032
     12 C         140.7009  142.6569  170.4748 C.ar    1  UNL1       -0.0003
     13 C         142.0662  142.9139  169.9091 C.ar    1  UNL1       -0.0003
     14 C         142.4925  142.2356  168.6410 C.ar    1  UNL1       -0.0045
     15 C         141.5535  141.3003  167.9386 C.ar    1  UNL1       -0.0231
     16 C         141.9798  140.6219  166.6704 C.3     1  UNL1        0.0465
     17 C         141.0409  139.6866  165.9680 C.3     1  UNL1        0.0849
     18 C         144.0493  139.0419  160.7567 C.3     1  UNL1        0.0056
     19 C         143.6238  137.9230  161.6606 C.3     1  UNL1        0.0329
@<TRIPOS>BOND
     1    18    19    1
     2    19     1    1
     3     1     2   ar
     4     2     3   ar
     5     3     4   ar
     6     4     5   ar
     7     4     6    1
     8     6     7    1
     9     7     8    1
    10     8     9    1
    11     9    10    1
    12    10    11   ar
    13    11    12   ar
    14    12    13   ar
    15    13    14   ar
    16    14    15   ar
    17    15    16    1
    18    16    17    1
    19     5     1   ar
    20    17     8    1
    21    17     3    1
    22    15    10   ar
@<TRIPOS>MOLECULE
*****
 19 22 0 0 0
SMALL
GASTEIGER

@<TRIPOS>ATOM
      1 C         138.8051  138.5827  162.5800 C.ar    1  UNL1        0.0067
      2 C         138.7847  139.0548  164.0036 C.ar    1  UNL1       -0.0006
      3 C         140.1769  138.9402  164.5499 C.ar    1  UNL1       -0.0052
      4 C         141.0578  138.3974  163.4640 C.ar    1  UNL1        0.0057
      5 S         140.2100  138.1764  162.2465 S.2     1  UNL1       -0.0959
      6 C         142.5182  138.1744  163.7241 C.3     1  UNL1        0.0500
      7 C         143.0976  138.4943  165.0701 C.3     1  UNL1        0.0778
      8 N         142.2167  139.0372  166.1561 N.3     1  UNL1       -0.2659
      9 C         142.7962  139.3571  167.5022 C.3     1  UNL1        0.0991
     10 C         141.9153  139.9000  168.5882 C.ar    1  UNL1       -0.0100
     11 C         142.4947  140.2199  169.9342 C.ar    1  UNL1       -0.0032
     12 C         141.6138  140.7627  171.0201 C.ar    1  UNL1       -0.0003
     13 C         140.1535  140.9857  170.7600 C.ar    1  UNL1       -0.0003
     14 C         139.5740  140.6658  169.4140 C.ar    1  UNL1       -0.0045
     15 C         140.4549  140.1229  168.3281 C.ar    1  UNL1       -0.0231
     16 C         139.8755  139.8030  166.9819 C.3     1  UNL1        0.0465
     17 C         140.7564  139.2602  165.8960 C.3     1  UNL1        0.0849
     18 C         137.3904  139.6380  160.6734 C.3     1  UNL1        0.0056
     19 C         137.6274  138.5267  161.6526 C.3     1  UNL1        0.0329
@<TRIPOS>BOND
     1    18    19    1
     2    19     1    1
     3     1     2   ar
     4     2     3   ar
     5     3     4   ar
     6     4     5   ar
     7     4     6    1
     8     6     7    1
     9     7     8    1
    10     8     9    1
    11     9    10    1
    12    10    11   ar
    13    11    12   ar
    14    12    13   ar
    15    13    14   ar
    16    14    15   ar
    17    15    16    1
    18    16    17    1
    19     5     1   ar
    20    17     8    1
    21    17     3    1
    22    15    10   ar
@<TRIPOS>MOLECULE
*****
 19 22 0 0 0
SMALL
GASTEIGER

@<TRIPOS>ATOM
      1 C         141.0570  141.0858  169.4845 C.ar    1  UNL1        0.0067
      2 C         141.7901  140.7355  168.2236 C.ar    1  UNL1       -0.0006
      3 C         140.8358  140.0158  167.3173 C.ar    1  UNL1       -0.0052
      4 C         139.5129  139.9214  168.0181 C.ar    1  UNL1        0.0057
      5 S         139.6496  140.5827  169.3575 S.2     1  UNL1       -0.0959
      6 C         138.3547  139.2454  167.3460 C.3     1  UNL1        0.0500
      7 C         138.5194  138.6639  165.9731 C.3     1  UNL1        0.0778
      8 N         139.8423  138.7584  165.2723 N.3     1  UNL1       -0.2659
      9 C         140.0070  138.1769  163.8995 C.3     1  UNL1        0.0991
     10 C         141.3299  138.2713  163.1987 C.ar    1  UNL1       -0.0100
     11 C         141.4946  137.6898  161.8259 C.ar    1  UNL1       -0.0032
     12 C         142.8175  137.7843  161.1252 C.ar    1  UNL1       -0.0003
     13 C         143.9757  138.4602  161.7973 C.ar    1  UNL1       -0.0003
     14 C         143.8110  139.0417  163.1701 C.ar    1  UNL1       -0.0045
     15 C         142.4881  138.9473  163.8708 C.ar    1  UNL1       -0.0231
     16 C         142.3234  139.5288  165.2437 C.3     1  UNL1        0.0465
     17 C         141.0005  139.4343  165.9444 C.3     1  UNL1        0.0849
     18 C         142.6184  142.9211  170.4560 C.3     1  UNL1        0.0056
     19 C         141.6306  141.8118  170.6652 C.3     1  UNL1        0.0329
@<TRIPOS>BOND
     1    18    19    1
     2    19     1    1
     3     1     2   ar
     4     2     3   ar
     5     3     4   ar
     6     4     5   ar
     7     4     6    1
     8     6     7    1
     9     7     8    1
    10     8     9    1
    11     9    10    1
    12    10    11   ar
    13    11    12   ar
    14    12    13   ar
    15    13    14   ar
    16    14    15   ar
    17    15    16    1
    18    16    17    1
    19     5     1   ar
    20    17     8    1
    21    17     3    1
    22    15    10   ar
@<TRIPOS>MOLECULE
*****
 19 22 0 0 0
SMALL
GASTEIGER

@<TRIPOS>ATOM
      1 C         141.4329  141.6165  169.0602 C.ar    1  UNL1        0.0067
      2 C         140.6049  141.4437  167.8214 C.ar    1  UNL1       -0.0006
      3 C         141.2298  140.3600  166.9937 C.ar    1  UNL1       -0.0052
      4 C         142.4440  139.8631  167.7208 C.ar    1  UNL1        0.0057
      5 S         142.5695  140.6397  168.9980 S.2     1  UNL1       -0.0959
      6 C         143.2784  138.7677  167.1260 C.3     1  UNL1        0.0500
      7 C         142.8986  138.1692  165.8041 C.3     1  UNL1        0.0778
      8 N         141.6844  138.6661  165.0769 N.3     1  UNL1       -0.2659
      9 C         141.3046  138.0676  163.7550 C.3     1  UNL1        0.0991
     10 C         140.0904  138.5645  163.0278 C.ar    1  UNL1       -0.0100
     11 C         139.7106  137.9660  161.7059 C.ar    1  UNL1       -0.0032
     12 C         138.4964  138.4630  160.9787 C.ar    1  UNL1       -0.0003
     13 C         137.6620  139.5584  161.5735 C.ar    1  UNL1       -0.0003
     14 C         138.0417  140.1569  162.8955 C.ar    1  UNL1       -0.0045
     15 C         139.2559  139.6600  163.6226 C.ar    1  UNL1       -0.0231
     16 C         139.6358  140.2585  164.9446 C.3     1  UNL1        0.0465
     17 C         140.8499  139.7615  165.6717 C.3     1  UNL1        0.0849
     18 C         140.4592  143.8828  169.8762 C.3     1  UNL1        0.0056
     19 C         141.1704  142.5946  170.1669 C.3     1  UNL1        0.0329
@<TRIPOS>BOND
     1    18    19    1
     2    19     1    1
     3     1     2   ar
     4     2     3   ar
     5     3     4   ar
     6     4     5   ar
     7     4     6    1
     8     6     7    1
     9     7     8    1
    10     8     9    1
    11     9    10    1
    12    10    11   ar
    13    11    12   ar
    14    12    13   ar
    15    13    14   ar
    16    14    15   ar
    17    15    16    1
    18    16    17    1
    19     5     1   ar
    20    17     8    1
    21    17     3    1
    22    15    10   ar
@<TRIPOS>MOLECULE
*****
 19 22 0 0 0
SMALL
GASTEIGER

@<TRIPOS>ATOM
      1 C         141.1584  141.6694  169.0763 C.ar    1  UNL1        0.0067
      2 C         141.0479  142.1856  167.6722 C.ar    1  UNL1       -0.0006
      3 C         140.0705  141.3188  166.9353 C.ar    1  UNL1       -0.0052
      4 C         139.5769  140.2668  167.8838 C.ar    1  UNL1        0.0057
      5 S         140.2492  140.4836  169.2071 S.2     1  UNL1       -0.0959
      6 C         138.5789  139.2475  167.4201 C.3     1  UNL1        0.0500
      7 C         138.0746  139.2801  166.0078 C.3     1  UNL1        0.0778
      8 N         138.5682  140.3321  165.0592 N.3     1  UNL1       -0.2659
      9 C         138.0638  140.3647  163.6470 C.3     1  UNL1        0.0991
     10 C         138.5574  141.4166  162.6984 C.ar    1  UNL1       -0.0100
     11 C         138.0531  141.4492  161.2861 C.ar    1  UNL1       -0.0032
     12 C         138.5467  142.5012  160.3376 C.ar    1  UNL1       -0.0003
     13 C         139.5446  143.5205  160.8013 C.ar    1  UNL1       -0.0003
     14 C         140.0490  143.4879  162.2136 C.ar    1  UNL1       -0.0045
     15 C         139.5554  142.4360  163.1621 C.ar    1  UNL1       -0.0231
     16 C         140.0597  142.4033  164.5745 C.3     1  UNL1        0.0465
     17 C         139.5661  141.3514  165.5230 C.3     1  UNL1        0.0849
     18 C         143.4886  142.4590  169.9110 C.3     1  UNL1        0.0056
     19 C         142.0258  142.2392  170.1595 C.3     1  UNL1        0.0329
@<TRIPOS>BOND
     1    18    19    1
     2    19     1    1
     3     1     2   ar
     4     2     3   ar
     5     3     4   ar
     6     4     5   ar
     7     4     6    1
     8     6     7    1
     9     7     8    1
    10     8     9    1
    11     9    10    1
    12    10    11   ar
    13    11    12   ar
    14    12    13   ar
    15    13    14   ar
    16    14    15   ar
    17    15    16    1
    18    16    17    1
    19     5     1   ar
    20    17     8    1
    21    17     3    1
    22    15    10   ar
@<TRIPOS>MOLECULE
*****
 19 22 0 0 0
SMALL
GASTEIGER

@<TRIPOS>ATOM
      1 C         141.8460  138.3335  160.6518 C.ar    1  UNL1        0.0067
      2 C         142.1983  138.4891  162.1016 C.ar    1  UNL1       -0.0006
      3 C         140.9667  138.9345  162.8327 C.ar    1  UNL1       -0.0052
      4 C         139.8532  139.0543  161.8349 C.ar    1  UNL1        0.0057
      5 S         140.3966  138.6829  160.4871 S.2     1  UNL1       -0.0959
      6 C         138.4882  139.4862  162.2826 C.3     1  UNL1        0.0500
      7 C         138.2368  139.7982  163.7281 C.3     1  UNL1        0.0778
      8 N         139.3504  139.6784  164.7259 N.3     1  UNL1       -0.2659
      9 C         139.0990  139.9905  166.1714 C.3     1  UNL1        0.0991
     10 C         140.2126  139.8707  167.1692 C.ar    1  UNL1       -0.0100
     11 C         139.9613  140.1828  168.6147 C.ar    1  UNL1       -0.0032
     12 C         141.0748  140.0630  169.6124 C.ar    1  UNL1       -0.0003
     13 C         142.4398  139.6311  169.1647 C.ar    1  UNL1       -0.0003
     14 C         142.6912  139.3191  167.7193 C.ar    1  UNL1       -0.0045
     15 C         141.5776  139.4389  166.7215 C.ar    1  UNL1       -0.0231
     16 C         141.8289  139.1268  165.2760 C.3     1  UNL1        0.0465
     17 C         140.7154  139.2466  164.2782 C.3     1  UNL1        0.0849
     18 C         142.3597  138.0251  158.1238 C.3     1  UNL1        0.0056
     19 C         142.7792  137.9040  159.5588 C.3     1  UNL1        0.0329
@<TRIPOS>BOND
     1    18    19    1
     2    19     1    1
     3     1     2   ar
     4     2     3   ar
     5     3     4   ar
     6     4     5   ar
     7     4     6    1
     8     6     7    1
     9     7     8    1
    10     8     9    1
    11     9    10    1
    12    10    11   ar
    13    11    12   ar
    14    12    13   ar
    15    13    14   ar
    16    14    15   ar
    17    15    16    1
    18    16    17    1
    19     5     1   ar
    20    17     8    1
    21    17     3    1
    22    15    10   ar
@<TRIPOS>MOLECULE
*****
 19 22 0 0 0
SMALL
GASTEIGER

@<TRIPOS>ATOM
      1 C         143.4354  141.9887  162.4649 C.ar    1  UNL1        0.0067
      2 C         142.7798  142.4084  163.7472 C.ar    1  UNL1       -0.0006
      3 C         142.9208  141.2837  164.7295 C.ar    1  UNL1       -0.0052
      4 C         143.6634  140.1689  164.0545 C.ar    1  UNL1        0.0057
      5 S         143.9815  140.6047  162.6549 S.2     1  UNL1       -0.0959
      6 C         143.9541  138.9010  164.8015 C.3     1  UNL1        0.0500
      7 C         143.5022  138.7480  166.2235 C.3     1  UNL1        0.0778
      8 N         142.7595  139.8628  166.8986 N.3     1  UNL1       -0.2659
      9 C         142.3075  139.7097  168.3207 C.3     1  UNL1        0.0991
     10 C         141.5648  140.8245  168.9958 C.ar    1  UNL1       -0.0100
     11 C         141.1129  140.6714  170.4178 C.ar    1  UNL1       -0.0032
     12 C         140.3702  141.7861  171.0929 C.ar    1  UNL1       -0.0003
     13 C         140.0795  143.0540  170.3458 C.ar    1  UNL1       -0.0003
     14 C         140.5315  143.2071  168.9238 C.ar    1  UNL1       -0.0045
     15 C         141.2741  142.0923  168.2488 C.ar    1  UNL1       -0.0231
     16 C         141.7261  142.2454  166.8267 C.3     1  UNL1        0.0465
     17 C         142.4688  141.1306  166.1516 C.3     1  UNL1        0.0849
     18 C         144.5458  142.4661  160.1651 C.3     1  UNL1        0.0056
     19 C         143.5285  142.8092  161.2126 C.3     1  UNL1        0.0329
@<TRIPOS>BOND
     1    18    19    1
     2    19     1    1
     3     1     2   ar
     4     2     3   ar
     5     3     4   ar
     6     4     5   ar
     7     4     6    1
     8     6     7    1
     9     7     8    1
    10     8     9    1
    11     9    10    1
    12    10    11   ar
    13    11    12   ar
    14    12    13   ar
    15    13    14   ar
    16    14    15   ar
    17    15    16    1
    18    16    17    1
    19     5     1   ar
    20    17     8    1
    21    17     3    1
    22    15    10   ar
@<TRIPOS>MOLECULE
*****
 19 22 0 0 0
SMALL
GASTEIGER

@<TRIPOS>ATOM
      1 C         141.4598  140.2285  168.2922 C.ar    1  UNL1        0.0067
      2 C         140.9572  141.2996  167.3702 C.ar    1  UNL1       -0.0006
      3 C         141.7457  141.2223  166.0965 C.ar    1  UNL1       -0.0052
      4 C         142.7357  140.1035  166.2314 C.ar    1  UNL1        0.0057
      5 S         142.5590  139.4893  167.5884 S.2     1  UNL1       -0.0959
      6 C         143.6701  139.7885  165.1011 C.3     1  UNL1        0.0500
      7 C         143.6146  140.5924  163.8359 C.3     1  UNL1        0.0778
      8 N         142.6246  141.7112  163.7010 N.3     1  UNL1       -0.2659
      9 C         142.5690  142.5151  162.4358 C.3     1  UNL1        0.0991
     10 C         141.5790  143.6339  162.3009 C.ar    1  UNL1       -0.0100
     11 C         141.5235  144.4378  161.0357 C.ar    1  UNL1       -0.0032
     12 C         140.5335  145.5565  160.9009 C.ar    1  UNL1       -0.0003
     13 C         139.5991  145.8715  162.0312 C.ar    1  UNL1       -0.0003
     14 C         139.6546  145.0676  163.2964 C.ar    1  UNL1       -0.0045
     15 C         140.6446  143.9489  163.4312 C.ar    1  UNL1       -0.0231
     16 C         140.7001  143.1450  164.6964 C.3     1  UNL1        0.0465
     17 C         141.6901  142.0262  164.8313 C.3     1  UNL1        0.0849
     18 C         139.5545  140.3354  170.0553 C.3     1  UNL1        0.0056
     19 C         140.9523  139.9463  169.6753 C.3     1  UNL1        0.0329
@<TRIPOS>BOND
     1    18    19    1
     2    19     1    1
     3     1     2   ar
     4     2     3   ar
     5     3     4   ar
     6     4     5   ar
     7     4     6    1
     8     6     7    1
     9     7     8    1
    10     8     9    1
    11     9    10    1
    12    10    11   ar
    13    11    12   ar
    14    12    13   ar
    15    13    14   ar
    16    14    15   ar
    17    15    16    1
    18    16    17    1
    19     5     1   ar
    20    17     8    1
    21    17     3    1
    22    15    10   ar
