@<TRIPOS>MOLECULE
*****
 28 31 0 0 0
SMALL
GASTEIGER

@<TRIPOS>ATOM
      1 O         144.0347  143.1050  167.0458 O.2     1  UNL1       -0.2903
      2 P         142.9307  142.3245  166.3963 P.3     1  UNL1        0.2269
      3 C         142.3541  142.0166  167.7463 C.ar    1  UNL1        0.0498
      4 C         142.9012  140.8766  168.5532 C.ar    1  UNL1        0.0046
      5 C         142.3246  140.5686  169.9033 C.ar    1  UNL1        0.0002
      6 C         141.2009  141.4006  170.4464 C.ar    1  UNL1        0.0000
      7 C         140.6538  142.5406  169.6395 C.ar    1  UNL1        0.0002
      8 C         141.2304  142.8486  168.2895 C.ar    1  UNL1        0.0046
      9 C         143.5074  142.6325  165.0462 C.ar    1  UNL1        0.0498
     10 C         144.2086  141.5593  164.2675 C.ar    1  UNL1        0.0046
     11 C         144.7852  141.8673  162.9175 C.ar    1  UNL1        0.0002
     12 C         144.6606  143.2486  162.3461 C.ar    1  UNL1        0.0000
     13 C         143.9593  144.3219  163.1248 C.ar    1  UNL1        0.0002
     14 C         143.3827  144.0139  164.4748 C.ar    1  UNL1        0.0046
     15 N         141.8267  141.5441  165.7467 N.pl3   1  UNL1       -0.2544
     16 C         140.7857  142.2531  164.9321 C.ar    1  UNL1        0.0728
     17 C         139.9759  143.3563  165.5462 C.ar    1  UNL1        0.0180
     18 C         138.9348  144.0654  164.7315 C.ar    1  UNL1        0.0220
     19 C         138.7037  143.6712  163.3028 C.ar    1  UNL1        0.0990
     20 N         139.5136  142.5680  162.6887 N.ar    1  UNL1       -0.2410
     21 C         140.5545  141.8590  163.5034 C.ar    1  UNL1        0.1136
     22 C         141.7636  140.0545  165.9117 C.3     1  UNL1        0.1431
     23 C         140.4395  139.3767  166.1049 C.ar    1  UNL1        0.0794
     24 C         139.5373  139.7990  167.2264 C.ar    1  UNL1        0.0165
     25 C         138.2132  139.1212  167.4196 C.ar    1  UNL1        0.0029
     26 C         137.7912  138.0211  166.4913 C.ar    1  UNL1        0.0207
     27 C         138.6934  137.5988  165.3698 C.ar    1  UNL1        0.0985
     28 N         140.0175  138.2766  165.1766 N.ar    1  UNL1       -0.2464
@<TRIPOS>BOND
     1     1     2    2
     2     2     3    1
     3     3     4   ar
     4     4     5   ar
     5     5     6   ar
     6     6     7   ar
     7     7     8   ar
     8     2     9    1
     9     9    10   ar
    10    10    11   ar
    11    11    12   ar
    12    12    13   ar
    13    13    14   ar
    14     2    15    1
    15    15    22    1
    16    22    23    1
    17    23    24   ar
    18    24    25   ar
    19    25    26   ar
    20    26    27   ar
    21    27    28   ar
    22    15    16    1
    23    16    17   ar
    24    17    18   ar
    25    18    19   ar
    26    19    20   ar
    27    20    21   ar
    28     8     3   ar
    29    14     9   ar
    30    28    23   ar
    31    21    16   ar
@<TRIPOS>MOLECULE
*****
 28 31 0 0 0
SMALL
GASTEIGER

@<TRIPOS>ATOM
      1 O         144.0709  143.1149  167.0376 O.2     1  UNL1       -0.2903
      2 P         142.9632  142.3333  166.3957 P.3     1  UNL1        0.2269
      3 C         143.5280  142.6449  165.0416 C.ar    1  UNL1        0.0498
      4 C         143.3925  144.0259  164.4721 C.ar    1  UNL1        0.0046
      5 C         143.9574  144.3375  163.1178 C.ar    1  UNL1        0.0002
      6 C         144.6577  143.2681  162.3331 C.ar    1  UNL1        0.0000
      7 C         144.7932  141.8870  162.9026 C.ar    1  UNL1        0.0002
      8 C         144.2284  141.5754  164.2568 C.ar    1  UNL1        0.0046
      9 C         142.3984  142.0217  167.7500 C.ar    1  UNL1        0.0498
     10 C         141.2781  142.8509  168.3043 C.ar    1  UNL1        0.0046
     11 C         140.7134  142.5393  169.6585 C.ar    1  UNL1        0.0002
     12 C         141.2689  141.3984  170.4584 C.ar    1  UNL1        0.0000
     13 C         142.3892  140.5692  169.9041 C.ar    1  UNL1        0.0002
     14 C         142.9539  140.8808  168.5499 C.ar    1  UNL1        0.0046
     15 N         141.8556  141.5516  165.7539 N.pl3   1  UNL1       -0.2544
     16 C         140.8139  142.2583  164.9380 C.ar    1  UNL1        0.0728
     17 C         140.0024  143.3612  165.5505 C.ar    1  UNL1        0.0180
     18 C         138.9608  144.0679  164.7346 C.ar    1  UNL1        0.0220
     19 C         138.7307  143.6718  163.3062 C.ar    1  UNL1        0.0990
     20 N         139.5423  142.5688  162.6938 N.ar    1  UNL1       -0.2410
     21 C         140.5839  141.8622  163.5097 C.ar    1  UNL1        0.1136
     22 C         141.7895  140.0632  165.9278 C.3     1  UNL1        0.1431
     23 C         140.4642  139.3896  166.1278 C.ar    1  UNL1        0.0794
     24 C         139.5696  139.8140  167.2546 C.ar    1  UNL1        0.0165
     25 C         138.2443  139.1404  167.4546 C.ar    1  UNL1        0.0029
     26 C         137.8137  138.0424  166.5278 C.ar    1  UNL1        0.0207
     27 C         138.7083  137.6180  165.4010 C.ar    1  UNL1        0.0985
     28 N         140.0335  138.2916  165.2010 N.ar    1  UNL1       -0.2464
@<TRIPOS>BOND
     1     1     2    2
     2     2     3    1
     3     3     4   ar
     4     4     5   ar
     5     5     6   ar
     6     6     7   ar
     7     7     8   ar
     8     2     9    1
     9     9    10   ar
    10    10    11   ar
    11    11    12   ar
    12    12    13   ar
    13    13    14   ar
    14     2    15    1
    15    15    22    1
    16    22    23    1
    17    23    24   ar
    18    24    25   ar
    19    25    26   ar
    20    26    27   ar
    21    27    28   ar
    22    15    16    1
    23    16    17   ar
    24    17    18   ar
    25    18    19   ar
    26    19    20   ar
    27    20    21   ar
    28     8     3   ar
    29    14     9   ar
    30    28    23   ar
    31    21    16   ar
@<TRIPOS>MOLECULE
*****
 28 31 0 0 0
SMALL
GASTEIGER

@<TRIPOS>ATOM
      1 O         142.4206  139.5735  166.5770 O.2     1  UNL1       -0.2903
      2 P         141.7335  140.1516  165.3756 P.3     1  UNL1        0.2269
      3 C         140.4458  139.5135  165.8050 C.ar    1  UNL1        0.0498
      4 C         139.7236  140.0233  167.0169 C.ar    1  UNL1        0.0046
      5 C         138.4358  139.3851  167.4463 C.ar    1  UNL1        0.0002
      6 C         137.8702  138.2372  166.6638 C.ar    1  UNL1        0.0000
      7 C         138.5923  137.7274  165.4519 C.ar    1  UNL1        0.0002
      8 C         139.8801  138.3655  165.0225 C.ar    1  UNL1        0.0046
      9 C         143.0213  140.7898  164.9462 C.ar    1  UNL1        0.0498
     10 C         143.2857  142.2320  165.2624 C.ar    1  UNL1        0.0046
     11 C         144.5735  142.8701  164.8330 C.ar    1  UNL1        0.0002
     12 C         145.5969  142.0659  164.0874 C.ar    1  UNL1        0.0000
     13 C         145.3325  140.6237  163.7711 C.ar    1  UNL1        0.0002
     14 C         144.0448  139.9856  164.2005 C.ar    1  UNL1        0.0046
     15 N         141.0464  140.7298  164.1741 N.pl3   1  UNL1       -0.2544
     16 C         139.9948  141.7854  164.3472 C.ar    1  UNL1        0.0728
     17 C         140.3191  143.0544  165.0782 C.ar    1  UNL1        0.0180
     18 C         139.2675  144.1101  165.2512 C.ar    1  UNL1        0.0220
     19 C         137.8916  143.8966  164.6932 C.ar    1  UNL1        0.0990
     20 N         137.5673  142.6276  163.9622 N.ar    1  UNL1       -0.2410
     21 C         138.6189  141.5720  163.7892 C.ar    1  UNL1        0.1136
     22 C         141.4107  140.2524  162.7996 C.3     1  UNL1        0.1431
     23 C         141.4895  141.2282  161.6631 C.ar    1  UNL1        0.0794
     24 C         142.5861  142.2510  161.6275 C.ar    1  UNL1        0.0165
     25 C         142.6649  143.2269  160.4909 C.ar    1  UNL1        0.0029
     26 C         141.6471  143.1798  159.3901 C.ar    1  UNL1        0.0207
     27 C         140.5505  142.1569  159.4258 C.ar    1  UNL1        0.0985
     28 N         140.4718  141.1811  160.5622 N.ar    1  UNL1       -0.2464
@<TRIPOS>BOND
     1     1     2    2
     2     2     3    1
     3     3     4   ar
     4     4     5   ar
     5     5     6   ar
     6     6     7   ar
     7     7     8   ar
     8     2     9    1
     9     9    10   ar
    10    10    11   ar
    11    11    12   ar
    12    12    13   ar
    13    13    14   ar
    14     2    15    1
    15    15    22    1
    16    22    23    1
    17    23    24   ar
    18    24    25   ar
    19    25    26   ar
    20    26    27   ar
    21    27    28   ar
    22    15    16    1
    23    16    17   ar
    24    17    18   ar
    25    18    19   ar
    26    19    20   ar
    27    20    21   ar
    28     8     3   ar
    29    14     9   ar
    30    28    23   ar
    31    21    16   ar
@<TRIPOS>MOLECULE
*****
 28 31 0 0 0
SMALL
GASTEIGER

@<TRIPOS>ATOM
      1 O         142.4225  139.5940  166.5885 O.2     1  UNL1       -0.2903
      2 P         141.7357  140.1673  165.3845 P.3     1  UNL1        0.2269
      3 C         143.0237  140.8033  164.9526 C.ar    1  UNL1        0.0498
      4 C         144.0470  139.9957  164.2106 C.ar    1  UNL1        0.0046
      5 C         145.3351  140.6317  163.7786 C.ar    1  UNL1        0.0002
      6 C         145.5997  142.0752  164.0888 C.ar    1  UNL1        0.0000
      7 C         144.5764  142.8828  164.8308 C.ar    1  UNL1        0.0002
      8 C         143.2884  142.2468  165.2627 C.ar    1  UNL1        0.0046
      9 C         140.4477  139.5313  165.8165 C.ar    1  UNL1        0.0498
     10 C         139.7269  140.0447  167.0277 C.ar    1  UNL1        0.0046
     11 C         138.4390  139.4087  167.4596 C.ar    1  UNL1        0.0002
     12 C         137.8717  138.2593  166.6804 C.ar    1  UNL1        0.0000
     13 C         138.5925  137.7459  165.4692 C.ar    1  UNL1        0.0002
     14 C         139.8804  138.3819  165.0373 C.ar    1  UNL1        0.0046
     15 N         141.0489  140.7406  164.1806 N.pl3   1  UNL1       -0.2544
     16 C         139.9937  141.7933  164.3493 C.ar    1  UNL1        0.0728
     17 C         140.3132  143.0656  165.0767 C.ar    1  UNL1        0.0180
     18 C         139.2580  144.1184  165.2454 C.ar    1  UNL1        0.0220
     19 C         137.8833  143.8987  164.6868 C.ar    1  UNL1        0.0990
     20 N         137.5639  142.6263  163.9594 N.ar    1  UNL1       -0.2410
     21 C         138.6190  141.5736  163.7907 C.ar    1  UNL1        0.1136
     22 C         141.4172  140.2612  162.8078 C.3     1  UNL1        0.1431
     23 C         141.4952  141.2347  161.6692 C.ar    1  UNL1        0.0794
     24 C         142.5925  142.2567  161.6301 C.ar    1  UNL1        0.0165
     25 C         142.6705  143.2302  160.4916 C.ar    1  UNL1        0.0029
     26 C         141.6513  143.1817  159.3922 C.ar    1  UNL1        0.0207
     27 C         140.5539  142.1597  159.4313 C.ar    1  UNL1        0.0985
     28 N         140.4759  141.1862  160.5698 N.ar    1  UNL1       -0.2464
@<TRIPOS>BOND
     1     1     2    2
     2     2     3    1
     3     3     4   ar
     4     4     5   ar
     5     5     6   ar
     6     6     7   ar
     7     7     8   ar
     8     2     9    1
     9     9    10   ar
    10    10    11   ar
    11    11    12   ar
    12    12    13   ar
    13    13    14   ar
    14     2    15    1
    15    15    22    1
    16    22    23    1
    17    23    24   ar
    18    24    25   ar
    19    25    26   ar
    20    26    27   ar
    21    27    28   ar
    22    15    16    1
    23    16    17   ar
    24    17    18   ar
    25    18    19   ar
    26    19    20   ar
    27    20    21   ar
    28     8     3   ar
    29    14     9   ar
    30    28    23   ar
    31    21    16   ar
@<TRIPOS>MOLECULE
*****
 28 31 0 0 0
SMALL
GASTEIGER

@<TRIPOS>ATOM
      1 O         139.8515  139.8711  167.7681 O.2     1  UNL1       -0.2903
      2 P         140.6559  140.6391  166.7616 P.3     1  UNL1        0.2269
      3 C         141.2558  141.4581  167.8658 C.ar    1  UNL1        0.0498
      4 C         140.4302  142.5005  168.5599 C.ar    1  UNL1        0.0046
      5 C         141.0301  143.3196  169.6642 C.ar    1  UNL1        0.0002
      6 C         142.4555  143.0961  170.0743 C.ar    1  UNL1        0.0000
      7 C         143.2811  142.0537  169.3803 C.ar    1  UNL1        0.0002
      8 C         142.6812  141.2346  168.2760 C.ar    1  UNL1        0.0046
      9 C         140.0560  139.8200  165.6573 C.ar    1  UNL1        0.0498
     10 C         138.9622  140.3943  164.8067 C.ar    1  UNL1        0.0046
     11 C         138.3623  139.5753  163.7026 C.ar    1  UNL1        0.0002
     12 C         138.8563  138.1818  163.4490 C.ar    1  UNL1        0.0000
     13 C         139.9502  137.6075  164.2996 C.ar    1  UNL1        0.0002
     14 C         140.5500  138.4265  165.4038 C.ar    1  UNL1        0.0046
     15 N         141.4603  141.4070  165.7551 N.pl3   1  UNL1       -0.2544
     16 C         142.4604  140.6947  164.8933 C.ar    1  UNL1        0.0728
     17 C         143.5663  139.9029  165.5256 C.ar    1  UNL1        0.0180
     18 C         144.5664  139.1906  164.6638 C.ar    1  UNL1        0.0220
     19 C         144.4606  139.2704  163.1697 C.ar    1  UNL1        0.0990
     20 N         143.3546  140.0623  162.5373 N.ar    1  UNL1       -0.2410
     21 C         142.3546  140.7745  163.3991 C.ar    1  UNL1        0.1136
     22 C         141.2647  142.8871  165.6102 C.3     1  UNL1        0.1431
     23 C         140.1293  143.4164  164.7851 C.ar    1  UNL1        0.0794
     24 C         138.8938  143.9384  165.4567 C.ar    1  UNL1        0.0165
     25 C         137.7584  144.4677  164.6315 C.ar    1  UNL1        0.0029
     26 C         137.8585  144.4749  163.1349 C.ar    1  UNL1        0.0207
     27 C         139.0941  143.9528  162.4634 C.ar    1  UNL1        0.0985
     28 N         140.2294  143.4236  163.2885 N.ar    1  UNL1       -0.2464
@<TRIPOS>BOND
     1     1     2    2
     2     2     3    1
     3     3     4   ar
     4     4     5   ar
     5     5     6   ar
     6     6     7   ar
     7     7     8   ar
     8     2     9    1
     9     9    10   ar
    10    10    11   ar
    11    11    12   ar
    12    12    13   ar
    13    13    14   ar
    14     2    15    1
    15    15    22    1
    16    22    23    1
    17    23    24   ar
    18    24    25   ar
    19    25    26   ar
    20    26    27   ar
    21    27    28   ar
    22    15    16    1
    23    16    17   ar
    24    17    18   ar
    25    18    19   ar
    26    19    20   ar
    27    20    21   ar
    28     8     3   ar
    29    14     9   ar
    30    28    23   ar
    31    21    16   ar
@<TRIPOS>MOLECULE
*****
 28 31 0 0 0
SMALL
GASTEIGER

@<TRIPOS>ATOM
      1 O         139.8333  139.8789  167.7530 O.2     1  UNL1       -0.2903
      2 P         140.6445  140.6435  166.7494 P.3     1  UNL1        0.2269
      3 C         140.0426  139.8294  165.6427 C.ar    1  UNL1        0.0498
      4 C         138.9562  140.4124  164.7883 C.ar    1  UNL1        0.0046
      5 C         138.3543  139.5982  163.6815 C.ar    1  UNL1        0.0002
      6 C         138.8387  138.2013  163.4291 C.ar    1  UNL1        0.0000
      7 C         139.9251  137.6183  164.2835 C.ar    1  UNL1        0.0002
      8 C         140.5270  138.4324  165.3902 C.ar    1  UNL1        0.0046
      9 C         141.2465  141.4575  167.8563 C.ar    1  UNL1        0.0498
     10 C         140.4273  142.5082  168.5454 C.ar    1  UNL1        0.0046
     11 C         141.0293  143.3222  169.6522 C.ar    1  UNL1        0.0002
     12 C         142.4504  143.0855  170.0698 C.ar    1  UNL1        0.0000
     13 C         143.2696  142.0348  169.3807 C.ar    1  UNL1        0.0002
     14 C         142.6676  141.2208  168.2739 C.ar    1  UNL1        0.0046
     15 N         141.4557  141.4081  165.7458 N.pl3   1  UNL1       -0.2544
     16 C         142.4569  140.6920  164.8884 C.ar    1  UNL1        0.0728
     17 C         143.5554  139.8938  165.5257 C.ar    1  UNL1        0.0180
     18 C         144.5565  139.1777  164.6683 C.ar    1  UNL1        0.0220
     19 C         144.4591  139.2598  163.1737 C.ar    1  UNL1        0.0990
     20 N         143.3605  140.0581  162.5365 N.ar    1  UNL1       -0.2410
     21 C         142.3594  140.7741  163.3939 C.ar    1  UNL1        0.1136
     22 C         141.2659  142.8888  165.5995 C.3     1  UNL1        0.1431
     23 C         140.1399  143.4216  164.7638 C.ar    1  UNL1        0.0794
     24 C         138.8975  143.9422  165.4234 C.ar    1  UNL1        0.0165
     25 C         137.7715  144.4750  164.5877 C.ar    1  UNL1        0.0029
     26 C         137.8881  144.4872  163.0922 C.ar    1  UNL1        0.0207
     27 C         139.1307  143.9666  162.4326 C.ar    1  UNL1        0.0985
     28 N         140.2565  143.4338  163.2683 N.ar    1  UNL1       -0.2464
@<TRIPOS>BOND
     1     1     2    2
     2     2     3    1
     3     3     4   ar
     4     4     5   ar
     5     5     6   ar
     6     6     7   ar
     7     7     8   ar
     8     2     9    1
     9     9    10   ar
    10    10    11   ar
    11    11    12   ar
    12    12    13   ar
    13    13    14   ar
    14     2    15    1
    15    15    22    1
    16    22    23    1
    17    23    24   ar
    18    24    25   ar
    19    25    26   ar
    20    26    27   ar
    21    27    28   ar
    22    15    16    1
    23    16    17   ar
    24    17    18   ar
    25    18    19   ar
    26    19    20   ar
    27    20    21   ar
    28     8     3   ar
    29    14     9   ar
    30    28    23   ar
    31    21    16   ar
@<TRIPOS>MOLECULE
*****
 28 31 0 0 0
SMALL
GASTEIGER

@<TRIPOS>ATOM
      1 O         144.4571  139.3890  165.0630 O.2     1  UNL1       -0.2903
      2 P         143.0626  139.8789  164.8074 P.3     1  UNL1        0.2269
      3 C         143.2060  139.5297  163.3557 C.ar    1  UNL1        0.0498
      4 C         142.7058  138.2096  162.8488 C.ar    1  UNL1        0.0046
      5 C         142.8492  137.8605  161.3970 C.ar    1  UNL1        0.0002
      6 C         143.4929  138.8315  160.4522 C.ar    1  UNL1        0.0000
      7 C         143.9931  140.1517  160.9591 C.ar    1  UNL1        0.0002
      8 C         143.8497  140.5008  162.4108 C.ar    1  UNL1        0.0046
      9 C         142.9192  140.2280  166.2592 C.ar    1  UNL1        0.0498
     10 C         142.7639  139.1403  167.2804 C.ar    1  UNL1        0.0046
     11 C         142.6206  139.4895  168.7321 C.ar    1  UNL1        0.0002
     12 C         142.6325  140.9263  169.1626 C.ar    1  UNL1        0.0000
     13 C         142.7878  142.0140  168.1415 C.ar    1  UNL1        0.0002
     14 C         142.9312  141.6648  166.6898 C.ar    1  UNL1        0.0046
     15 N         141.6681  140.3688  164.5518 N.pl3   1  UNL1       -0.2544
     16 C         140.4963  139.6302  165.1278 C.ar    1  UNL1        0.0728
     17 C         139.7214  140.2244  166.2663 C.ar    1  UNL1        0.0180
     18 C         138.5496  139.4859  166.8423 C.ar    1  UNL1        0.0220
     19 C         138.1529  138.1532  166.2796 C.ar    1  UNL1        0.0990
     20 N         138.9280  137.5590  165.1411 N.ar    1  UNL1       -0.2410
     21 C         140.0996  138.2975  164.5652 C.ar    1  UNL1        0.1136
     22 C         141.4453  141.5971  163.7203 C.3     1  UNL1        0.1431
     23 C         140.2417  142.4589  163.9630 C.ar    1  UNL1        0.0794
     24 C         140.3108  143.5813  164.9556 C.ar    1  UNL1        0.0165
     25 C         139.1072  144.4431  165.1983 C.ar    1  UNL1        0.0029
     26 C         137.8346  144.1824  164.4483 C.ar    1  UNL1        0.0207
     27 C         137.7656  143.0599  163.4556 C.ar    1  UNL1        0.0985
     28 N         138.9691  142.1982  163.2130 N.ar    1  UNL1       -0.2464
@<TRIPOS>BOND
     1     1     2    2
     2     2     3    1
     3     3     4   ar
     4     4     5   ar
     5     5     6   ar
     6     6     7   ar
     7     7     8   ar
     8     2     9    1
     9     9    10   ar
    10    10    11   ar
    11    11    12   ar
    12    12    13   ar
    13    13    14   ar
    14     2    15    1
    15    15    22    1
    16    22    23    1
    17    23    24   ar
    18    24    25   ar
    19    25    26   ar
    20    26    27   ar
    21    27    28   ar
    22    15    16    1
    23    16    17   ar
    24    17    18   ar
    25    18    19   ar
    26    19    20   ar
    27    20    21   ar
    28     8     3   ar
    29    14     9   ar
    30    28    23   ar
    31    21    16   ar
@<TRIPOS>MOLECULE
*****
 28 31 0 0 0
SMALL
GASTEIGER

@<TRIPOS>ATOM
      1 O         140.4816  139.6408  168.4178 O.2     1  UNL1       -0.2903
      2 P         140.9790  140.5320  167.3186 P.3     1  UNL1        0.2269
      3 C         141.4547  141.5241  168.3382 C.ar    1  UNL1        0.0498
      4 C         142.8777  141.4897  168.8111 C.ar    1  UNL1        0.0046
      5 C         143.3534  142.4818  169.8307 C.ar    1  UNL1        0.0002
      6 C         142.4060  143.5082  170.3773 C.ar    1  UNL1        0.0000
      7 C         140.9829  143.5426  169.9044 C.ar    1  UNL1        0.0002
      8 C         140.5073  142.5506  168.8848 C.ar    1  UNL1        0.0046
      9 C         140.5033  139.5399  166.2990 C.ar    1  UNL1        0.0498
     10 C         139.0342  139.3008  166.1138 C.ar    1  UNL1        0.0046
     11 C         138.5585  138.3087  165.0942 C.ar    1  UNL1        0.0002
     12 C         139.5520  137.5558  164.2599 C.ar    1  UNL1        0.0000
     13 C         141.0212  137.7949  164.4452 C.ar    1  UNL1        0.0002
     14 C         141.4968  138.7870  165.4647 C.ar    1  UNL1        0.0046
     15 N         141.4764  141.4232  166.2194 N.pl3   1  UNL1       -0.2544
     16 C         140.5040  142.2251  165.4060 C.ar    1  UNL1        0.0728
     17 C         139.8718  143.4536  165.9899 C.ar    1  UNL1        0.0180
     18 C         138.8994  144.2555  165.1765 C.ar    1  UNL1        0.0220
     19 C         138.5593  143.8288  163.7793 C.ar    1  UNL1        0.0990
     20 N         139.1917  142.6003  163.1954 N.ar    1  UNL1       -0.2410
     21 C         140.1640  141.7984  164.0088 C.ar    1  UNL1        0.1136
     22 C         142.9462  141.5126  165.9335 C.3     1  UNL1        0.1431
     23 C         143.4296  142.2292  164.7075 C.ar    1  UNL1        0.0794
     24 C         143.5496  143.7243  164.7111 C.ar    1  UNL1        0.0165
     25 C         144.0330  144.4409  163.4851 C.ar    1  UNL1        0.0029
     26 C         144.3963  143.6622  162.2556 C.ar    1  UNL1        0.0207
     27 C         144.2762  142.1670  162.2521 C.ar    1  UNL1        0.0985
     28 N         143.7929  141.4505  163.4780 N.ar    1  UNL1       -0.2464
@<TRIPOS>BOND
     1     1     2    2
     2     2     3    1
     3     3     4   ar
     4     4     5   ar
     5     5     6   ar
     6     6     7   ar
     7     7     8   ar
     8     2     9    1
     9     9    10   ar
    10    10    11   ar
    11    11    12   ar
    12    12    13   ar
    13    13    14   ar
    14     2    15    1
    15    15    22    1
    16    22    23    1
    17    23    24   ar
    18    24    25   ar
    19    25    26   ar
    20    26    27   ar
    21    27    28   ar
    22    15    16    1
    23    16    17   ar
    24    17    18   ar
    25    18    19   ar
    26    19    20   ar
    27    20    21   ar
    28     8     3   ar
    29    14     9   ar
    30    28    23   ar
    31    21    16   ar
@<TRIPOS>MOLECULE
*****
 28 31 0 0 0
SMALL
GASTEIGER

@<TRIPOS>ATOM
      1 O         140.4547  139.6453  168.4299 O.2     1  UNL1       -0.2903
      2 P         140.9599  140.5274  167.3269 P.3     1  UNL1        0.2269
      3 C         140.4650  139.5409  166.3113 C.ar    1  UNL1        0.0498
      4 C         141.4434  138.7730  165.4727 C.ar    1  UNL1        0.0046
      5 C         140.9483  137.7864  164.4570 C.ar    1  UNL1        0.0002
      6 C         139.4750  137.5677  164.2798 C.ar    1  UNL1        0.0000
      7 C         138.4966  138.3356  165.1183 C.ar    1  UNL1        0.0002
      8 C         138.9916  139.3222  166.1340 C.ar    1  UNL1        0.0046
      9 C         141.4549  141.5140  168.3427 C.ar    1  UNL1        0.0498
     10 C         142.8839  141.4701  168.7966 C.ar    1  UNL1        0.0046
     11 C         143.3788  142.4567  169.8124 C.ar    1  UNL1        0.0002
     12 C         142.4447  143.4871  170.3742 C.ar    1  UNL1        0.0000
     13 C         141.0157  143.5310  169.9203 C.ar    1  UNL1        0.0002
     14 C         140.5208  142.5445  168.9046 C.ar    1  UNL1        0.0046
     15 N         141.4651  141.4095  166.2240 N.pl3   1  UNL1       -0.2544
     16 C         140.5011  142.2268  165.4160 C.ar    1  UNL1        0.0728
     17 C         139.8884  143.4628  166.0048 C.ar    1  UNL1        0.0180
     18 C         138.9243  144.2800  165.1968 C.ar    1  UNL1        0.0220
     19 C         138.5730  143.8611  163.8000 C.ar    1  UNL1        0.0990
     20 N         139.1857  142.6250  163.2111 N.ar    1  UNL1       -0.2410
     21 C         140.1497  141.8078  164.0191 C.ar    1  UNL1        0.1136
     22 C         142.9344  141.4745  165.9289 C.3     1  UNL1        0.1431
     23 C         143.4230  142.1964  164.7082 C.ar    1  UNL1        0.0794
     24 C         143.5709  143.6890  164.7284 C.ar    1  UNL1        0.0165
     25 C         144.0595  144.4109  163.5077 C.ar    1  UNL1        0.0029
     26 C         144.4003  143.6402  162.2668 C.ar    1  UNL1        0.0207
     27 C         144.2524  142.1476  162.2465 C.ar    1  UNL1        0.0985
     28 N         143.7638  141.4258  163.4672 N.ar    1  UNL1       -0.2464
@<TRIPOS>BOND
     1     1     2    2
     2     2     3    1
     3     3     4   ar
     4     4     5   ar
     5     5     6   ar
     6     6     7   ar
     7     7     8   ar
     8     2     9    1
     9     9    10   ar
    10    10    11   ar
    11    11    12   ar
    12    12    13   ar
    13    13    14   ar
    14     2    15    1
    15    15    22    1
    16    22    23    1
    17    23    24   ar
    18    24    25   ar
    19    25    26   ar
    20    26    27   ar
    21    27    28   ar
    22    15    16    1
    23    16    17   ar
    24    17    18   ar
    25    18    19   ar
    26    19    20   ar
    27    20    21   ar
    28     8     3   ar
    29    14     9   ar
    30    28    23   ar
    31    21    16   ar
