@<TRIPOS>MOLECULE
*****
 37 40 0 0 0
SMALL
GASTEIGER

@<TRIPOS>ATOM
      1 O         141.6541  139.6064  158.9856 O.2     1  UNL1       -0.2733
      2 C         142.3901  138.3179  158.7663 C.2     1  UNL1        0.2426
      3 N         142.9798  137.5831  159.9334 N.am    1  UNL1       -0.3018
      4 H         143.4629  136.7374  159.7895 H       1  UNL1        0.1495
      5 C         142.8335  138.1367  161.3199 C.3     1  UNL1        0.1035
      6 C         141.7684  138.0868  162.3749 C.3     1  UNL1        0.0933
      7 N         142.6265  138.9195  163.2806 N.3     1  UNL1       -0.2711
      8 C         143.6916  138.9694  162.2256 C.3     1  UNL1        0.0933
      9 C         142.4801  139.4730  164.6670 C.3     1  UNL1        0.0576
     10 C         142.9719  138.6852  165.8449 C.3     1  UNL1        0.0163
     11 C         142.8255  139.2388  167.2314 C.3     1  UNL1        0.0058
     12 C         142.1874  140.5802  167.4398 C.3     1  UNL1        0.0255
     13 C         141.6956  141.3680  166.2619 C.3     1  UNL1        0.0058
     14 C         141.8420  140.8145  164.8755 C.3     1  UNL1        0.0163
     15 C         142.0410  141.1337  168.8262 C.ar    1  UNL1        0.0143
     16 C         143.0238  142.1450  169.3377 C.ar    1  UNL1        0.0194
     17 C         142.8774  142.6985  170.7241 C.ar    1  UNL1        0.0988
     18 N         141.7483  142.2408  171.5991 N.ar    1  UNL1       -0.2392
     19 C         140.7655  141.2296  171.0876 C.ar    1  UNL1        0.1350
     20 C         140.9119  140.6760  169.7012 C.ar    1  UNL1        0.1487
     21 O         139.9291  139.6648  169.1898 O.3     1  UNL1       -0.5043
     22 H         139.2238  139.3789  169.7364 H       1  UNL1        0.2922
     23 C         142.5364  137.7643  157.3800 C.3     1  UNL1        0.1759
     24 N         142.5421  136.2803  157.1617 N.am    1  UNL1       -0.2931
     25 C         143.5908  135.6543  156.2910 C.2     1  UNL1        0.2462
     26 O         144.6339  136.5123  155.6385 O.2     1  UNL1       -0.2701
     27 H         141.8574  135.7171  157.5899 H       1  UNL1        0.1502
     28 C         143.5965  134.1702  156.0727 C.ar    1  UNL1        0.0533
     29 C         142.9764  133.5917  154.8354 C.ar    1  UNL1        0.0045
     30 C         142.9821  132.1077  154.6172 C.ar    1  UNL1        0.0001
     31 C         143.6078  131.2022  155.6362 C.ar    1  UNL1        0.0039
     32 C         144.2278  131.7806  156.8735 C.ar    1  UNL1        0.0716
     33 C         144.2222  133.2646  157.0917 C.ar    1  UNL1        0.0084
     34 C         144.8535  130.8751  157.8926 C.3     1  UNL1        0.4186
     35 F         145.4793  129.9695  158.9116 F       1  UNL1       -0.1659
     36 F         143.8508  129.8097  157.5615 F       1  UNL1       -0.1659
     37 F         145.8563  131.9404  158.2236 F       1  UNL1       -0.1659
@<TRIPOS>BOND
     1     1     2    2
     2     2    23    1
     3    23    24    1
     4    24    25   am
     5    25    26    2
     6    25    28    1
     7    28    29   ar
     8    29    30   ar
     9    30    31   ar
    10    31    32   ar
    11    32    34    1
    12    34    35    1
    13    34    36    1
    14    34    37    1
    15    32    33   ar
    16     2     3   am
    17     3     5    1
    18     5     6    1
    19     6     7    1
    20     9     7    1
    21     9    10    1
    22    10    11    1
    23    11    12    1
    24    12    15    1
    25    15    16   ar
    26    16    17   ar
    27    17    18   ar
    28    18    19   ar
    29    19    20   ar
    30    20    21    1
    31    12    13    1
    32    13    14    1
    33     7     8    1
    34    33    28   ar
    35     8     5    1
    36    14     9    1
    37    20    15   ar
    38    24    27    1
    39     3     4    1
    40    21    22    1
@<TRIPOS>MOLECULE
*****
 37 40 0 0 0
SMALL
GASTEIGER

@<TRIPOS>ATOM
      1 O         142.3019  139.4295  159.0144 O.2     1  UNL1       -0.2733
      2 C         142.6871  137.9897  158.8457 C.2     1  UNL1        0.2426
      3 N         142.9034  137.1249  160.0521 N.am    1  UNL1       -0.3018
      4 H         143.1563  136.1799  159.9413 H       1  UNL1        0.1495
      5 C         142.7346  137.6999  161.4272 C.3     1  UNL1        0.1035
      6 C         143.6371  138.3907  162.4061 C.3     1  UNL1        0.0933
      7 N         142.4958  138.5131  163.3718 N.3     1  UNL1       -0.2711
      8 C         141.5933  137.8223  162.3929 C.3     1  UNL1        0.0933
      9 C         142.3270  139.0881  164.7469 C.3     1  UNL1        0.0576
     10 C         141.3086  140.1621  164.9909 C.3     1  UNL1        0.0163
     11 C         141.1398  140.7371  166.3661 C.3     1  UNL1        0.0058
     12 C         141.9894  140.2382  167.4971 C.3     1  UNL1        0.0255
     13 C         143.0078  139.1642  167.2531 C.3     1  UNL1        0.0058
     14 C         143.1766  138.5892  165.8780 C.3     1  UNL1        0.0163
     15 C         141.8206  140.8132  168.8721 C.ar    1  UNL1        0.0143
     16 C         140.8481  140.1921  169.8306 C.ar    1  UNL1        0.0194
     17 C         140.6793  140.7672  171.2057 C.ar    1  UNL1        0.0988
     18 N         141.4830  141.9633  171.6223 N.ar    1  UNL1       -0.2392
     19 C         142.4554  142.5843  170.6639 C.ar    1  UNL1        0.1350
     20 C         142.6242  142.0093  169.2888 C.ar    1  UNL1        0.1487
     21 O         143.5967  142.6303  168.3303 O.3     1  UNL1       -0.5043
     22 H         144.0987  143.3774  168.5906 H       1  UNL1        0.2922
     23 C         142.8560  137.4146  157.4707 C.3     1  UNL1        0.1759
     24 N         143.0629  135.9394  157.2949 N.am    1  UNL1       -0.2931
     25 C         142.1576  135.1577  156.3897 C.2     1  UNL1        0.2462
     26 O         141.0455  135.8513  155.6602 O.2     1  UNL1       -0.2701
     27 H         143.7928  135.4841  157.7737 H       1  UNL1        0.1502
     28 C         142.3645  133.6824  156.2138 C.ar    1  UNL1        0.0533
     29 C         141.5610  132.9285  155.1961 C.ar    1  UNL1        0.0045
     30 C         141.7678  131.4533  155.0203 C.ar    1  UNL1        0.0001
     31 C         142.7782  130.7320  155.8623 C.ar    1  UNL1        0.0039
     32 C         143.5818  131.4860  156.8801 C.ar    1  UNL1        0.0716
     33 C         143.3749  132.9612  157.0558 C.ar    1  UNL1        0.0084
     34 C         144.5922  130.7648  157.7220 C.3     1  UNL1        0.4186
     35 F         145.6026  130.0435  158.5640 F       1  UNL1       -0.1659
     36 F         145.6131  131.8142  157.3958 F       1  UNL1       -0.1659
     37 F         143.5712  129.7154  158.0483 F       1  UNL1       -0.1659
@<TRIPOS>BOND
     1     1     2    2
     2     2    23    1
     3    23    24    1
     4    24    25   am
     5    25    26    2
     6    25    28    1
     7    28    29   ar
     8    29    30   ar
     9    30    31   ar
    10    31    32   ar
    11    32    34    1
    12    34    35    1
    13    34    36    1
    14    34    37    1
    15    32    33   ar
    16     2     3   am
    17     3     5    1
    18     5     6    1
    19     6     7    1
    20     9     7    1
    21     9    10    1
    22    10    11    1
    23    11    12    1
    24    12    15    1
    25    15    16   ar
    26    16    17   ar
    27    17    18   ar
    28    18    19   ar
    29    19    20   ar
    30    20    21    1
    31    12    13    1
    32    13    14    1
    33     7     8    1
    34    33    28   ar
    35     8     5    1
    36    14     9    1
    37    20    15   ar
    38    24    27    1
    39     3     4    1
    40    21    22    1
@<TRIPOS>MOLECULE
*****
 37 40 0 0 0
SMALL
GASTEIGER

@<TRIPOS>ATOM
      1 O         141.4722  139.1147  159.0022 O.2     1  UNL1       -0.2733
      2 C         142.4018  137.9608  158.7690 C.2     1  UNL1        0.2426
      3 N         143.1470  137.3535  159.9204 N.am    1  UNL1       -0.3018
      4 H         143.7571  136.5961  159.7673 H       1  UNL1        0.1495
      5 C         142.9627  137.9001  161.3051 C.3     1  UNL1        0.1035
      6 C         143.7397  138.8281  162.1911 C.3     1  UNL1        0.0933
      7 N         142.7021  138.6732  163.2633 N.3     1  UNL1       -0.2711
      8 C         141.9252  137.7451  162.3772 C.3     1  UNL1        0.0933
      9 C         142.5179  139.2198  164.6479 C.3     1  UNL1        0.0576
     10 C         141.7240  140.4748  164.8593 C.3     1  UNL1        0.0163
     11 C         141.5398  141.0214  166.2440 C.3     1  UNL1        0.0058
     12 C         142.1494  140.3130  167.4172 C.3     1  UNL1        0.0255
     13 C         142.9433  139.0580  167.2058 C.3     1  UNL1        0.0058
     14 C         143.1275  138.5114  165.8212 C.3     1  UNL1        0.0163
     15 C         141.9651  140.8596  168.8018 C.ar    1  UNL1        0.0143
     16 C         140.9912  140.2114  169.7406 C.ar    1  UNL1        0.0194
     17 C         140.8070  140.7581  171.1253 C.ar    1  UNL1        0.0988
     18 N         141.5967  141.9529  171.5711 N.ar    1  UNL1       -0.2392
     19 C         142.5706  142.6011  170.6323 C.ar    1  UNL1        0.1350
     20 C         142.7548  142.0545  169.2477 C.ar    1  UNL1        0.1487
     21 O         143.7287  142.7027  168.3089 O.3     1  UNL1       -0.5043
     22 H         144.2220  143.4491  168.5874 H       1  UNL1        0.2922
     23 C         142.5861  137.4141  157.3844 C.3     1  UNL1        0.1759
     24 N         143.0027  135.9861  157.1911 N.am    1  UNL1       -0.2931
     25 C         142.2362  135.1017  156.2529 C.2     1  UNL1        0.2462
     26 O         141.0531  135.6452  155.5080 O.2     1  UNL1       -0.2701
     27 H         143.7792  135.6294  157.6800 H       1  UNL1        0.1502
     28 C         142.6528  133.6737  156.0596 C.ar    1  UNL1        0.0533
     29 C         144.0768  133.2686  156.3005 C.ar    1  UNL1        0.0045
     30 C         144.4933  131.8407  156.1072 C.ar    1  UNL1        0.0001
     31 C         143.4858  130.8178  155.6730 C.ar    1  UNL1        0.0039
     32 C         142.0618  131.2228  155.4320 C.ar    1  UNL1        0.0716
     33 C         141.6453  132.6507  155.6253 C.ar    1  UNL1        0.0084
     34 C         141.0543  130.1998  154.9978 C.3     1  UNL1        0.4186
     35 F         140.0468  129.1769  154.5635 F       1  UNL1       -0.1659
     36 F         142.1066  129.1332  155.0689 F       1  UNL1       -0.1659
     37 F         140.0020  131.2664  154.9266 F       1  UNL1       -0.1659
@<TRIPOS>BOND
     1     1     2    2
     2     2    23    1
     3    23    24    1
     4    24    25   am
     5    25    26    2
     6    25    28    1
     7    28    29   ar
     8    29    30   ar
     9    30    31   ar
    10    31    32   ar
    11    32    34    1
    12    34    35    1
    13    34    36    1
    14    34    37    1
    15    32    33   ar
    16     2     3   am
    17     3     5    1
    18     5     6    1
    19     6     7    1
    20     9     7    1
    21     9    10    1
    22    10    11    1
    23    11    12    1
    24    12    15    1
    25    15    16   ar
    26    16    17   ar
    27    17    18   ar
    28    18    19   ar
    29    19    20   ar
    30    20    21    1
    31    12    13    1
    32    13    14    1
    33     7     8    1
    34    33    28   ar
    35     8     5    1
    36    14     9    1
    37    20    15   ar
    38    24    27    1
    39     3     4    1
    40    21    22    1
@<TRIPOS>MOLECULE
*****
 37 40 0 0 0
SMALL
GASTEIGER

@<TRIPOS>ATOM
      1 O         138.5530  139.1329  159.3165 O.2     1  UNL1       -0.2733
      2 C         139.8423  138.7276  158.6658 C.2     1  UNL1        0.2426
      3 N         141.1116  138.7070  159.4648 N.am    1  UNL1       -0.3018
      4 H         141.9579  138.4410  159.0377 H       1  UNL1        0.1495
      5 C         141.0917  139.0917  160.9146 C.3     1  UNL1        0.1035
      6 C         141.3621  138.3770  162.2053 C.3     1  UNL1        0.0933
      7 N         141.0635  139.6357  162.9648 N.3     1  UNL1       -0.2711
      8 C         140.7931  140.3503  161.6740 C.3     1  UNL1        0.0933
      9 C         141.0435  140.0203  164.4144 C.3     1  UNL1        0.0576
     10 C         142.1655  140.8323  164.9905 C.3     1  UNL1        0.0163
     11 C         142.1455  141.2169  166.4402 C.3     1  UNL1        0.0058
     12 C         141.0036  140.7896  167.3139 C.3     1  UNL1        0.0255
     13 C         139.8816  139.9776  166.7378 C.3     1  UNL1        0.0058
     14 C         139.9015  139.5930  165.2882 C.3     1  UNL1        0.0163
     15 C         140.9836  141.1742  168.7635 C.ar    1  UNL1        0.0143
     16 C         140.0695  142.2649  169.2376 C.ar    1  UNL1        0.0194
     17 C         140.0496  142.6495  170.6874 C.ar    1  UNL1        0.0988
     18 N         140.9438  141.9435  171.6630 N.ar    1  UNL1       -0.2392
     19 C         141.8580  140.8528  171.1889 C.ar    1  UNL1        0.1350
     20 C         141.8779  140.4682  169.7392 C.ar    1  UNL1        0.1487
     21 O         142.7921  139.3775  169.2652 O.3     1  UNL1       -0.5043
     22 H         143.3507  138.9365  169.8746 H       1  UNL1        0.2922
     23 C         139.8623  138.3429  157.2162 C.3     1  UNL1        0.1759
     24 N         140.3519  136.9852  156.8072 N.am    1  UNL1       -0.2931
     25 C         141.8233  136.7285  156.6699 C.2     1  UNL1        0.2462
     26 O         142.8053  137.8293  156.9417 O.2     1  UNL1       -0.2701
     27 H         139.7074  136.2627  156.6288 H       1  UNL1        0.1502
     28 C         142.3129  135.3709  156.2609 C.ar    1  UNL1        0.0533
     29 C         141.7501  134.7074  155.0390 C.ar    1  UNL1        0.0045
     30 C         142.2397  133.3499  154.6300 C.ar    1  UNL1        0.0001
     31 C         143.2919  132.6557  155.4430 C.ar    1  UNL1        0.0039
     32 C         143.8547  133.3191  156.6649 C.ar    1  UNL1        0.0716
     33 C         143.3651  134.6767  157.0738 C.ar    1  UNL1        0.0084
     34 C         144.9070  132.6250  157.4778 C.3     1  UNL1        0.4186
     35 F         145.9592  131.9309  158.2908 F       1  UNL1       -0.1659
     36 F         144.5783  133.5004  158.6507 F       1  UNL1       -0.1659
     37 F         145.2356  131.7496  156.3049 F       1  UNL1       -0.1659
@<TRIPOS>BOND
     1     1     2    2
     2     2    23    1
     3    23    24    1
     4    24    25   am
     5    25    26    2
     6    25    28    1
     7    28    29   ar
     8    29    30   ar
     9    30    31   ar
    10    31    32   ar
    11    32    34    1
    12    34    35    1
    13    34    36    1
    14    34    37    1
    15    32    33   ar
    16     2     3   am
    17     3     5    1
    18     5     6    1
    19     6     7    1
    20     9     7    1
    21     9    10    1
    22    10    11    1
    23    11    12    1
    24    12    15    1
    25    15    16   ar
    26    16    17   ar
    27    17    18   ar
    28    18    19   ar
    29    19    20   ar
    30    20    21    1
    31    12    13    1
    32    13    14    1
    33     7     8    1
    34    33    28   ar
    35     8     5    1
    36    14     9    1
    37    20    15   ar
    38    24    27    1
    39     3     4    1
    40    21    22    1
@<TRIPOS>MOLECULE
*****
 37 40 0 0 0
SMALL
GASTEIGER

@<TRIPOS>ATOM
      1 O         138.8985  139.0920  158.9500 O.2     1  UNL1       -0.2733
      2 C         140.1767  138.4939  158.4416 C.2     1  UNL1        0.2426
      3 N         141.3376  138.3029  159.3721 N.am    1  UNL1       -0.3018
      4 H         142.1765  137.9103  159.0384 H       1  UNL1        0.1495
      5 C         141.2203  138.7099  160.8111 C.3     1  UNL1        0.1035
      6 C         140.9183  137.9946  162.0945 C.3     1  UNL1        0.0933
      7 N         141.0544  139.2856  162.8461 N.3     1  UNL1       -0.2711
      8 C         141.3564  140.0009  161.5627 C.3     1  UNL1        0.0933
      9 C         140.9371  139.6926  164.2850 C.3     1  UNL1        0.0576
     10 C         139.5846  139.8141  164.9222 C.3     1  UNL1        0.0163
     11 C         139.4673  140.2211  166.3612 C.3     1  UNL1        0.0058
     12 C         140.7025  140.5066  167.1629 C.3     1  UNL1        0.0255
     13 C         142.0550  140.3851  166.5257 C.3     1  UNL1        0.0058
     14 C         142.1723  139.9781  165.0868 C.3     1  UNL1        0.0163
     15 C         140.5852  140.9136  168.6018 C.ar    1  UNL1        0.0143
     16 C         140.7027  139.8826  169.6849 C.ar    1  UNL1        0.0194
     17 C         140.5854  140.2896  171.1239 C.ar    1  UNL1        0.0988
     18 N         140.3506  141.7277  171.4797 N.ar    1  UNL1       -0.2392
     19 C         140.2330  142.7588  170.3966 C.ar    1  UNL1        0.1350
     20 C         140.3503  142.3518  168.9577 C.ar    1  UNL1        0.1487
     21 O         140.2328  143.3829  167.8747 O.3     1  UNL1       -0.5043
     22 H         140.0861  144.2812  168.0970 H       1  UNL1        0.2922
     23 C         140.2940  138.0868  157.0027 C.3     1  UNL1        0.1759
     24 N         140.7876  136.7151  156.6491 N.am    1  UNL1       -0.2931
     25 C         142.2501  136.3964  156.7453 C.2     1  UNL1        0.2462
     26 O         143.2192  137.4493  157.1951 O.2     1  UNL1       -0.2701
     27 H         140.1516  136.0240  156.3540 H       1  UNL1        0.1502
     28 C         142.7437  135.0247  156.3918 C.ar    1  UNL1        0.0533
     29 C         143.6159  134.2709  157.3515 C.ar    1  UNL1        0.0045
     30 C         144.1093  132.8993  156.9979 C.ar    1  UNL1        0.0001
     31 C         143.7307  132.2814  155.6846 C.ar    1  UNL1        0.0039
     32 C         142.8585  133.0352  154.7249 C.ar    1  UNL1        0.0716
     33 C         142.3650  134.4068  155.0785 C.ar    1  UNL1        0.0084
     34 C         142.4798  132.4173  153.4116 C.3     1  UNL1        0.4186
     35 F         142.1011  131.7994  152.0982 F       1  UNL1       -0.1659
     36 F         143.7250  131.5816  153.4457 F       1  UNL1       -0.1659
     37 F         141.2346  133.2529  153.3774 F       1  UNL1       -0.1659
@<TRIPOS>BOND
     1     1     2    2
     2     2    23    1
     3    23    24    1
     4    24    25   am
     5    25    26    2
     6    25    28    1
     7    28    29   ar
     8    29    30   ar
     9    30    31   ar
    10    31    32   ar
    11    32    34    1
    12    34    35    1
    13    34    36    1
    14    34    37    1
    15    32    33   ar
    16     2     3   am
    17     3     5    1
    18     5     6    1
    19     6     7    1
    20     9     7    1
    21     9    10    1
    22    10    11    1
    23    11    12    1
    24    12    15    1
    25    15    16   ar
    26    16    17   ar
    27    17    18   ar
    28    18    19   ar
    29    19    20   ar
    30    20    21    1
    31    12    13    1
    32    13    14    1
    33     7     8    1
    34    33    28   ar
    35     8     5    1
    36    14     9    1
    37    20    15   ar
    38    24    27    1
    39     3     4    1
    40    21    22    1
@<TRIPOS>MOLECULE
*****
 37 40 0 0 0
SMALL
GASTEIGER

@<TRIPOS>ATOM
      1 O         139.9757  145.5428  159.4941 O.2     1  UNL1       -0.2733
      2 C         139.9059  144.3489  158.5887 C.2     1  UNL1        0.2426
      3 N         140.0293  142.9670  159.1588 N.am    1  UNL1       -0.3018
      4 H         139.9835  142.1835  158.5645 H       1  UNL1        0.1495
      5 C         140.2227  142.7789  160.6344 C.3     1  UNL1        0.1035
      6 C         141.3109  143.1101  161.6122 C.3     1  UNL1        0.0933
      7 N         140.4961  142.5130  162.7211 N.3     1  UNL1       -0.2711
      8 C         139.4079  142.1819  161.7433 C.3     1  UNL1        0.0933
      9 C         140.6895  142.3249  164.1967 C.3     1  UNL1        0.0576
     10 C         141.7191  141.3577  164.7009 C.3     1  UNL1        0.0163
     11 C         141.9124  141.1696  166.1765 C.3     1  UNL1        0.0058
     12 C         141.0762  141.9489  167.1478 C.3     1  UNL1        0.0255
     13 C         140.0466  142.9161  166.6435 C.3     1  UNL1        0.0058
     14 C         139.8532  143.1042  165.1680 C.3     1  UNL1        0.0163
     15 C         141.2695  141.7608  168.6233 C.ar    1  UNL1        0.0143
     16 C         142.2493  142.6194  169.3668 C.ar    1  UNL1        0.0194
     17 C         142.4427  142.4313  170.8424 C.ar    1  UNL1        0.0988
     18 N         141.6562  141.3846  171.5744 N.ar    1  UNL1       -0.2392
     19 C         140.6764  140.5260  170.8309 C.ar    1  UNL1        0.1350
     20 C         140.4831  140.7141  169.3554 C.ar    1  UNL1        0.1487
     21 O         139.5032  139.8555  168.6119 O.3     1  UNL1       -0.5043
     22 H         139.0120  139.2016  169.0693 H       1  UNL1        0.2922
     23 C         139.7126  144.5370  157.1132 C.3     1  UNL1        0.1759
     24 N         140.0679  145.8451  156.4708 N.am    1  UNL1       -0.2931
     25 C         139.1336  146.4718  155.4788 C.2     1  UNL1        0.2462
     26 O         137.8439  145.7904  155.1290 O.2     1  UNL1       -0.2701
     27 H         140.9144  146.2924  156.7004 H       1  UNL1        0.1502
     28 C         139.4890  147.7800  154.8365 C.ar    1  UNL1        0.0533
     29 C         140.3583  147.8038  153.6143 C.ar    1  UNL1        0.0045
     30 C         140.7136  149.1119  152.9721 C.ar    1  UNL1        0.0001
     31 C         140.1996  150.3962  153.5520 C.ar    1  UNL1        0.0039
     32 C         139.3303  150.3724  154.7741 C.ar    1  UNL1        0.0716
     33 C         138.9750  149.0643  155.4163 C.ar    1  UNL1        0.0084
     34 C         138.8163  151.6568  155.3540 C.3     1  UNL1        0.4186
     35 F         138.3022  152.9411  155.9338 F       1  UNL1       -0.1659
     36 F         138.2955  152.0572  154.0055 F       1  UNL1       -0.1659
     37 F         139.3371  151.2564  156.7025 F       1  UNL1       -0.1659
@<TRIPOS>BOND
     1     1     2    2
     2     2    23    1
     3    23    24    1
     4    24    25   am
     5    25    26    2
     6    25    28    1
     7    28    29   ar
     8    29    30   ar
     9    30    31   ar
    10    31    32   ar
    11    32    34    1
    12    34    35    1
    13    34    36    1
    14    34    37    1
    15    32    33   ar
    16     2     3   am
    17     3     5    1
    18     5     6    1
    19     6     7    1
    20     9     7    1
    21     9    10    1
    22    10    11    1
    23    11    12    1
    24    12    15    1
    25    15    16   ar
    26    16    17   ar
    27    17    18   ar
    28    18    19   ar
    29    19    20   ar
    30    20    21    1
    31    12    13    1
    32    13    14    1
    33     7     8    1
    34    33    28   ar
    35     8     5    1
    36    14     9    1
    37    20    15   ar
    38    24    27    1
    39     3     4    1
    40    21    22    1
@<TRIPOS>MOLECULE
*****
 37 40 0 0 0
SMALL
GASTEIGER

@<TRIPOS>ATOM
      1 O         143.6856  142.1217  159.1719 O.2     1  UNL1       -0.2733
      2 C         142.9871  143.3318  158.6263 C.2     1  UNL1        0.2426
      3 N         142.1228  144.1671  159.5237 N.am    1  UNL1       -0.3018
      4 H         141.6644  144.9614  159.1656 H       1  UNL1        0.1495
      5 C         141.9570  143.7923  160.9667 C.3     1  UNL1        0.1035
      6 C         142.2230  144.4729  162.2766 C.3     1  UNL1        0.0933
      7 N         141.7226  143.2623  163.0073 N.3     1  UNL1       -0.2711
      8 C         141.4566  142.5816  161.6973 C.3     1  UNL1        0.0933
      9 C         141.5568  142.8875  164.4502 C.3     1  UNL1        0.0576
     10 C         140.2947  143.2449  165.1777 C.3     1  UNL1        0.0163
     11 C         140.1290  142.8700  166.6207 C.3     1  UNL1        0.0058
     12 C         141.2253  142.1379  167.3361 C.3     1  UNL1        0.0255
     13 C         142.4875  141.7805  166.6086 C.3     1  UNL1        0.0058
     14 C         142.6533  142.1553  165.1657 C.3     1  UNL1        0.0163
     15 C         141.0596  141.7631  168.7790 C.ar    1  UNL1        0.0143
     16 C         141.8005  142.5208  169.8406 C.ar    1  UNL1        0.0194
     17 C         141.6347  142.1459  171.2835 C.ar    1  UNL1        0.0988
     18 N         140.7280  141.0135  171.6648 N.ar    1  UNL1       -0.2392
     19 C         139.9871  140.2558  170.6032 C.ar    1  UNL1        0.1350
     20 C         140.1529  140.6306  169.1603 C.ar    1  UNL1        0.1487
     21 O         139.4120  139.8729  168.0988 O.3     1  UNL1       -0.5043
     22 H         138.8456  139.1655  168.3370 H       1  UNL1        0.2922
     23 C         143.1528  143.7067  157.1835 C.3     1  UNL1        0.1759
     24 N         142.5452  144.9759  156.6637 N.am    1  UNL1       -0.2931
     25 C         141.3907  144.9182  155.7078 C.2     1  UNL1        0.2462
     26 O         140.8438  143.5913  155.2716 O.2     1  UNL1       -0.2701
     27 H         142.9042  145.8468  156.9500 H       1  UNL1        0.1502
     28 C         140.7831  146.1874  155.1880 C.ar    1  UNL1        0.0533
     29 C         141.0215  146.6062  153.7676 C.ar    1  UNL1        0.0045
     30 C         140.4139  147.8753  153.2479 C.ar    1  UNL1        0.0001
     31 C         139.5680  148.7256  154.1486 C.ar    1  UNL1        0.0039
     32 C         139.3296  148.3068  155.5691 C.ar    1  UNL1        0.0716
     33 C         139.9372  147.0377  156.0888 C.ar    1  UNL1        0.0084
     34 C         138.4837  149.1571  156.4699 C.3     1  UNL1        0.4186
     35 F         137.6378  150.0074  157.3706 F       1  UNL1       -0.1659
     36 F         138.7155  148.1943  157.5964 F       1  UNL1       -0.1659
     37 F         138.2520  150.1200  155.3433 F       1  UNL1       -0.1659
@<TRIPOS>BOND
     1     1     2    2
     2     2    23    1
     3    23    24    1
     4    24    25   am
     5    25    26    2
     6    25    28    1
     7    28    29   ar
     8    29    30   ar
     9    30    31   ar
    10    31    32   ar
    11    32    34    1
    12    34    35    1
    13    34    36    1
    14    34    37    1
    15    32    33   ar
    16     2     3   am
    17     3     5    1
    18     5     6    1
    19     6     7    1
    20     9     7    1
    21     9    10    1
    22    10    11    1
    23    11    12    1
    24    12    15    1
    25    15    16   ar
    26    16    17   ar
    27    17    18   ar
    28    18    19   ar
    29    19    20   ar
    30    20    21    1
    31    12    13    1
    32    13    14    1
    33     7     8    1
    34    33    28   ar
    35     8     5    1
    36    14     9    1
    37    20    15   ar
    38    24    27    1
    39     3     4    1
    40    21    22    1
@<TRIPOS>MOLECULE
*****
 37 40 0 0 0
SMALL
GASTEIGER

@<TRIPOS>ATOM
      1 O         137.2177  141.1561  163.0541 O.2     1  UNL1       -0.2733
      2 C         138.4018  140.3000  163.3930 C.2     1  UNL1        0.2426
      3 N         139.6663  140.4190  162.5950 N.am    1  UNL1       -0.3018
      4 H         140.4435  139.8570  162.8175 H       1  UNL1        0.1495
      5 C         139.7467  141.3941  161.4580 C.3     1  UNL1        0.1035
      6 C         139.4685  142.8591  161.2955 C.3     1  UNL1        0.0933
      7 N         139.8603  142.7732  159.8501 N.3     1  UNL1       -0.2711
      8 C         140.1385  141.3082  160.0126 C.3     1  UNL1        0.0933
      9 C         139.9407  143.7483  158.7132 C.3     1  UNL1        0.0576
     10 C         140.8408  144.9441  158.8129 C.3     1  UNL1        0.0163
     11 C         140.9211  145.9192  157.6759 C.3     1  UNL1        0.0058
     12 C         140.1014  145.6986  156.4393 C.3     1  UNL1        0.0255
     13 C         139.2014  144.5027  156.3395 C.3     1  UNL1        0.0058
     14 C         139.1210  143.5276  157.4764 C.3     1  UNL1        0.0163
     15 C         140.1818  146.6737  155.3023 C.ar    1  UNL1        0.0143
     16 C         140.9691  146.3291  154.0729 C.ar    1  UNL1        0.0194
     17 C         141.0494  147.3043  152.9360 C.ar    1  UNL1        0.0988
     18 N         140.3425  148.6240  153.0285 N.ar    1  UNL1       -0.2392
     19 C         139.5552  148.9686  154.2579 C.ar    1  UNL1        0.1350
     20 C         139.4749  147.9935  155.3948 C.ar    1  UNL1        0.1487
     21 O         138.6876  148.3381  156.6242 O.3     1  UNL1       -0.5043
     22 H         138.2460  149.1625  156.6820 H       1  UNL1        0.2922
     23 C         138.3215  139.3249  164.5300 C.3     1  UNL1        0.1759
     24 N         138.5550  139.7916  165.9363 N.am    1  UNL1       -0.2931
     25 C         139.9543  140.0025  166.4339 C.2     1  UNL1        0.2462
     26 O         141.1200  139.7466  165.5252 O.2     1  UNL1       -0.2701
     27 H         137.7900  139.9596  166.5327 H       1  UNL1        0.1502
     28 C         140.1879  140.4692  167.8402 C.ar    1  UNL1        0.0533
     29 C         139.1543  140.2135  168.8967 C.ar    1  UNL1        0.0045
     30 C         139.3879  140.6802  170.3030 C.ar    1  UNL1        0.0001
     31 C         140.6551  141.4027  170.6527 C.ar    1  UNL1        0.0039
     32 C         141.6887  141.6584  169.5962 C.ar    1  UNL1        0.0716
     33 C         141.4551  141.1917  168.1899 C.ar    1  UNL1        0.0084
     34 C         142.9559  142.3808  169.9459 C.3     1  UNL1        0.4186
     35 F         144.2231  143.1033  170.2956 F       1  UNL1       -0.1659
     36 F         142.1758  143.6432  170.1645 F       1  UNL1       -0.1659
     37 F         143.7359  141.1184  169.7272 F       1  UNL1       -0.1659
@<TRIPOS>BOND
     1     1     2    2
     2     2    23    1
     3    23    24    1
     4    24    25   am
     5    25    26    2
     6    25    28    1
     7    28    29   ar
     8    29    30   ar
     9    30    31   ar
    10    31    32   ar
    11    32    34    1
    12    34    35    1
    13    34    36    1
    14    34    37    1
    15    32    33   ar
    16     2     3   am
    17     3     5    1
    18     5     6    1
    19     6     7    1
    20     9     7    1
    21     9    10    1
    22    10    11    1
    23    11    12    1
    24    12    15    1
    25    15    16   ar
    26    16    17   ar
    27    17    18   ar
    28    18    19   ar
    29    19    20   ar
    30    20    21    1
    31    12    13    1
    32    13    14    1
    33     7     8    1
    34    33    28   ar
    35     8     5    1
    36    14     9    1
    37    20    15   ar
    38    24    27    1
    39     3     4    1
    40    21    22    1
@<TRIPOS>MOLECULE
*****
 37 40 0 0 0
SMALL
GASTEIGER

@<TRIPOS>ATOM
      1 O         137.0633  144.8081  155.0852 O.2     1  UNL1       -0.2733
      2 C         138.2358  143.9423  154.7305 C.2     1  UNL1        0.2426
      3 N         138.0999  142.4487  154.7552 N.am    1  UNL1       -0.3018
      4 H         138.8695  141.8805  154.5224 H       1  UNL1        0.1495
      5 C         136.7915  141.8208  155.1346 C.3     1  UNL1        0.1035
      6 C         135.4854  141.5861  154.4353 C.3     1  UNL1        0.0933
      7 N         134.9412  140.9328  155.6710 N.3     1  UNL1       -0.2711
      8 C         136.2473  141.1675  156.3703 C.3     1  UNL1        0.0933
      9 C         133.6329  140.3049  156.0504 C.3     1  UNL1        0.0576
     10 C         132.3547  141.0698  155.8736 C.3     1  UNL1        0.0163
     11 C         131.0463  140.4418  156.2529 C.3     1  UNL1        0.0058
     12 C         131.0161  139.0491  156.8091 C.3     1  UNL1        0.0255
     13 C         132.2943  138.2842  156.9859 C.3     1  UNL1        0.0058
     14 C         133.6026  138.9121  156.6066 C.3     1  UNL1        0.0163
     15 C         129.7078  138.4212  157.1884 C.ar    1  UNL1        0.0143
     16 C         129.2323  138.4789  158.6099 C.ar    1  UNL1        0.0194
     17 C         127.9239  137.8510  158.9892 C.ar    1  UNL1        0.0988
     18 N         127.0910  137.1654  157.9471 N.ar    1  UNL1       -0.2392
     19 C         127.5664  137.1077  156.5256 C.ar    1  UNL1        0.1350
     20 C         128.8748  137.7355  156.1462 C.ar    1  UNL1        0.1487
     21 O         129.3502  137.6778  154.7247 O.3     1  UNL1       -0.5043
     22 H         128.8299  137.2496  154.0737 H       1  UNL1        0.2922
     23 C         139.5442  144.5702  154.3511 C.3     1  UNL1        0.1759
     24 N         139.5728  145.9563  153.7784 N.am    1  UNL1       -0.2931
     25 C         139.6691  147.1429  154.6909 C.2     1  UNL1        0.2462
     26 O         139.7368  146.9435  156.1760 O.2     1  UNL1       -0.2701
     27 H         139.5284  146.0872  152.8037 H       1  UNL1        0.1502
     28 C         139.6977  148.5291  154.1182 C.ar    1  UNL1        0.0533
     29 C         140.2356  148.7589  152.7369 C.ar    1  UNL1        0.0045
     30 C         140.2642  150.1450  152.1643 C.ar    1  UNL1        0.0001
     31 C         139.7550  151.3012  152.9730 C.ar    1  UNL1        0.0039
     32 C         139.2172  151.0714  154.3542 C.ar    1  UNL1        0.0716
     33 C         139.1886  149.6853  154.9268 C.ar    1  UNL1        0.0084
     34 C         138.7080  152.2276  155.1628 C.3     1  UNL1        0.4186
     35 F         138.1988  153.3838  155.9714 F       1  UNL1       -0.1659
     36 F         139.3014  151.6231  156.4008 F       1  UNL1       -0.1659
     37 F         138.1146  152.8320  153.9249 F       1  UNL1       -0.1659
@<TRIPOS>BOND
     1     1     2    2
     2     2    23    1
     3    23    24    1
     4    24    25   am
     5    25    26    2
     6    25    28    1
     7    28    29   ar
     8    29    30   ar
     9    30    31   ar
    10    31    32   ar
    11    32    34    1
    12    34    35    1
    13    34    36    1
    14    34    37    1
    15    32    33   ar
    16     2     3   am
    17     3     5    1
    18     5     6    1
    19     6     7    1
    20     9     7    1
    21     9    10    1
    22    10    11    1
    23    11    12    1
    24    12    15    1
    25    15    16   ar
    26    16    17   ar
    27    17    18   ar
    28    18    19   ar
    29    19    20   ar
    30    20    21    1
    31    12    13    1
    32    13    14    1
    33     7     8    1
    34    33    28   ar
    35     8     5    1
    36    14     9    1
    37    20    15   ar
    38    24    27    1
    39     3     4    1
    40    21    22    1
