@<TRIPOS>MOLECULE
*****
 30 33 0 0 0
SMALL
GASTEIGER

@<TRIPOS>ATOM
      1 C         138.3817  139.0010  165.3282 C.3     1  UNL1        0.0086
      2 C         138.1126  140.3203  164.6671 C.3     1  UNL1        0.0008
      3 C         138.3019  140.4699  163.1866 C.3     1  UNL1        0.0044
      4 C         138.7604  139.3001  162.3672 C.3     1  UNL1        0.0224
      5 C         139.0295  137.9808  163.0282 C.3     1  UNL1        0.0044
      6 C         138.8402  137.8312  164.5087 C.3     1  UNL1        0.0008
      7 C         138.9497  139.4497  160.8867 C.ar    1  UNL1       -0.0194
      8 C         137.8595  140.0476  160.0478 C.ar    1  UNL1        0.0164
      9 C         138.0489  140.1971  158.5673 C.ar    1  UNL1        0.0985
     10 N         139.3285  139.7489  157.9258 N.ar    1  UNL1       -0.2439
     11 C         140.4188  139.1510  158.7648 C.ar    1  UNL1        0.0811
     12 C         141.6985  138.7028  158.1233 C.ar    1  UNL1        0.0214
     13 C         142.7887  138.1049  158.9622 C.ar    1  UNL1        0.0312
     14 C         142.5994  137.9553  160.4427 C.ar    1  UNL1        0.1402
     15 F         143.6897  137.3575  161.2816 F       1  UNL1       -0.2042
     16 C         141.3197  138.4036  161.0842 C.ar    1  UNL1        0.0308
     17 C         140.2294  139.0015  160.2452 C.ar    1  UNL1        0.0160
     18 C         137.1781  137.8829  167.3409 C.3     1  UNL1        0.0096
     19 C         138.1923  138.8514  166.8086 C.3     1  UNL1        0.0768
     20 C         139.0172  139.6703  167.7567 C.2     1  UNL1        0.2256
     21 O         138.6611  139.7166  169.2131 O.2     1  UNL1       -0.2748
     22 N         140.1981  140.4430  167.2485 N.am    1  UNL1       -0.2839
     23 H         140.4319  140.4126  166.2927 H       1  UNL1        0.1549
     24 C         141.0230  141.2619  168.1967 C.ar    1  UNL1        0.0504
     25 C         140.4618  142.5245  168.7809 C.ar    1  UNL1        0.0155
     26 C         141.2867  143.3434  169.7290 C.ar    1  UNL1        0.0127
     27 C         142.6726  142.8998  170.0930 C.ar    1  UNL1        0.0578
     28 CL        143.4975  143.7188  171.0411 Cl      1  UNL1       -0.0822
     29 C         143.2337  141.6373  169.5088 C.ar    1  UNL1        0.0127
     30 C         142.4089  140.8184  168.5606 C.ar    1  UNL1        0.0155
@<TRIPOS>BOND
     1    19    18    1
     2    19    20    1
     3    20    21    2
     4    20    22   am
     5    22    24    1
     6    24    25   ar
     7    25    26   ar
     8    26    27   ar
     9    27    28    1
    10    27    29   ar
    11    29    30   ar
    12    19     1    1
    13     1     2    1
    14     2     3    1
    15     3     4    1
    16     4     7    1
    17     7     8   ar
    18     8     9   ar
    19     9    10   ar
    20    10    11   ar
    21    11    12   ar
    22    12    13   ar
    23    13    14   ar
    24    14    15    1
    25    14    16   ar
    26    16    17   ar
    27     4     5    1
    28     5     6    1
    29    30    24   ar
    30     6     1    1
    31    17     7   ar
    32    17    11   ar
    33    22    23    1
@<TRIPOS>MOLECULE
*****
 30 33 0 0 0
SMALL
GASTEIGER

@<TRIPOS>ATOM
      1 C         142.1316  143.2062  163.3587 C.3     1  UNL1        0.0086
      2 C         140.8642  143.7549  163.9444 C.3     1  UNL1        0.0008
      3 C         140.0910  142.9498  164.9463 C.3     1  UNL1        0.0044
      4 C         140.5849  141.5960  165.3625 C.3     1  UNL1        0.0224
      5 C         141.8521  141.0473  164.7769 C.3     1  UNL1        0.0044
      6 C         142.6255  141.8524  163.7749 C.3     1  UNL1        0.0008
      7 C         139.8116  140.7909  166.3645 C.ar    1  UNL1       -0.0194
      8 C         138.8064  139.7796  165.8988 C.ar    1  UNL1        0.0164
      9 C         138.0331  138.9745  166.9008 C.ar    1  UNL1        0.0985
     10 N         138.2650  139.1808  168.3683 N.ar    1  UNL1       -0.2439
     11 C         139.2701  140.1922  168.8339 C.ar    1  UNL1        0.0811
     12 C         139.5020  140.3985  170.3015 C.ar    1  UNL1        0.0214
     13 C         140.5071  141.4098  170.7671 C.ar    1  UNL1        0.0312
     14 C         141.2805  142.2149  169.7651 C.ar    1  UNL1        0.1402
     15 F         142.2856  143.2262  170.2308 F       1  UNL1       -0.2042
     16 C         141.0486  142.0086  168.2976 C.ar    1  UNL1        0.0308
     17 C         140.0434  140.9972  167.8320 C.ar    1  UNL1        0.0160
     18 C         144.0829  144.8276  162.7992 C.3     1  UNL1        0.0096
     19 C         142.9048  144.0112  162.3568 C.3     1  UNL1        0.0768
     20 C         142.5001  144.0000  160.9125 C.2     1  UNL1        0.2256
     21 O         142.9230  142.8680  160.0238 O.2     1  UNL1       -0.2748
     22 N         141.6724  145.1208  160.3568 N.am    1  UNL1       -0.2839
     23 H         141.3948  145.8638  160.9400 H       1  UNL1        0.1549
     24 C         141.2676  145.1096  158.9125 C.ar    1  UNL1        0.0504
     25 C         142.0855  145.8533  157.8986 C.ar    1  UNL1        0.0155
     26 C         141.6808  145.8421  156.4543 C.ar    1  UNL1        0.0127
     27 C         140.4581  145.0871  156.0239 C.ar    1  UNL1        0.0578
     28 CL        140.0533  145.0759  154.5796 Cl      1  UNL1       -0.0822
     29 C         139.6403  144.3434  157.0378 C.ar    1  UNL1        0.0127
     30 C         140.0450  144.3546  158.4821 C.ar    1  UNL1        0.0155
@<TRIPOS>BOND
     1    19    18    1
     2    19    20    1
     3    20    21    2
     4    20    22   am
     5    22    24    1
     6    24    25   ar
     7    25    26   ar
     8    26    27   ar
     9    27    28    1
    10    27    29   ar
    11    29    30   ar
    12    19     1    1
    13     1     2    1
    14     2     3    1
    15     3     4    1
    16     4     7    1
    17     7     8   ar
    18     8     9   ar
    19     9    10   ar
    20    10    11   ar
    21    11    12   ar
    22    12    13   ar
    23    13    14   ar
    24    14    15    1
    25    14    16   ar
    26    16    17   ar
    27     4     5    1
    28     5     6    1
    29    30    24   ar
    30     6     1    1
    31    17     7   ar
    32    17    11   ar
    33    22    23    1
@<TRIPOS>MOLECULE
*****
 30 33 0 0 0
SMALL
GASTEIGER

@<TRIPOS>ATOM
      1 C         138.5790  139.7596  164.8033 C.3     1  UNL1        0.0086
      2 C         139.4827  139.1300  163.7850 C.3     1  UNL1        0.0008
      3 C         139.5040  139.6493  162.3780 C.3     1  UNL1        0.0044
      4 C         138.6217  140.7984  161.9892 C.3     1  UNL1        0.0224
      5 C         137.7180  141.4281  163.0074 C.3     1  UNL1        0.0044
      6 C         137.6967  140.9087  164.4146 C.3     1  UNL1        0.0008
      7 C         138.6431  141.3177  160.5821 C.ar    1  UNL1       -0.0194
      8 C         138.0229  140.5152  159.4770 C.ar    1  UNL1        0.0164
      9 C         138.0443  141.0346  158.0699 C.ar    1  UNL1        0.0985
     10 N         138.6858  142.3565  157.7681 N.ar    1  UNL1       -0.2439
     11 C         139.3060  143.1590  158.8732 C.ar    1  UNL1        0.0811
     12 C         139.9475  144.4808  158.5713 C.ar    1  UNL1        0.0214
     13 C         140.5676  145.2833  159.6765 C.ar    1  UNL1        0.0312
     14 C         140.5462  144.7640  161.0836 C.ar    1  UNL1        0.1402
     15 F         141.1664  145.5665  162.1887 F       1  UNL1       -0.2042
     16 C         139.9047  143.4421  161.3855 C.ar    1  UNL1        0.0308
     17 C         139.2846  142.6396  160.2802 C.ar    1  UNL1        0.0160
     18 C         137.7744  138.0048  166.5419 C.3     1  UNL1        0.0096
     19 C         138.5577  139.2403  166.2104 C.3     1  UNL1        0.0768
     20 C         139.3196  139.9564  167.2858 C.2     1  UNL1        0.2256
     21 O         139.0105  139.6890  168.7290 O.2     1  UNL1       -0.2748
     22 N         140.3907  140.9400  166.9181 N.am    1  UNL1       -0.2839
     23 H         140.5936  141.1156  165.9708 H       1  UNL1        0.1549
     24 C         141.1527  141.6561  167.9935 C.ar    1  UNL1        0.0504
     25 C         142.5572  141.2427  168.3198 C.ar    1  UNL1        0.0155
     26 C         143.3191  141.9588  169.3953 C.ar    1  UNL1        0.0127
     27 C         142.6765  143.0884  170.1444 C.ar    1  UNL1        0.0578
     28 CL        143.4385  143.8045  171.2199 Cl      1  UNL1       -0.0822
     29 C         141.2721  143.5018  169.8181 C.ar    1  UNL1        0.0127
     30 C         140.5101  142.7857  168.7427 C.ar    1  UNL1        0.0155
@<TRIPOS>BOND
     1    19    18    1
     2    19    20    1
     3    20    21    2
     4    20    22   am
     5    22    24    1
     6    24    25   ar
     7    25    26   ar
     8    26    27   ar
     9    27    28    1
    10    27    29   ar
    11    29    30   ar
    12    19     1    1
    13     1     2    1
    14     2     3    1
    15     3     4    1
    16     4     7    1
    17     7     8   ar
    18     8     9   ar
    19     9    10   ar
    20    10    11   ar
    21    11    12   ar
    22    12    13   ar
    23    13    14   ar
    24    14    15    1
    25    14    16   ar
    26    16    17   ar
    27     4     5    1
    28     5     6    1
    29    30    24   ar
    30     6     1    1
    31    17     7   ar
    32    17    11   ar
    33    22    23    1
@<TRIPOS>MOLECULE
*****
 30 33 0 0 0
SMALL
GASTEIGER

@<TRIPOS>ATOM
      1 C         139.6989  144.0634  162.6055 C.3     1  UNL1        0.0086
      2 C         140.5654  142.8395  162.6445 C.3     1  UNL1        0.0008
      3 C         140.3276  141.7851  163.6846 C.3     1  UNL1        0.0044
      4 C         139.2234  141.9545  164.6856 C.3     1  UNL1        0.0224
      5 C         138.3570  143.1783  164.6466 C.3     1  UNL1        0.0044
      6 C         138.5947  144.2328  163.6065 C.3     1  UNL1        0.0008
      7 C         138.9857  140.9000  165.7256 C.ar    1  UNL1       -0.0194
      8 C         138.0608  139.7554  165.4354 C.ar    1  UNL1        0.0164
      9 C         137.8231  138.7010  166.4754 C.ar    1  UNL1        0.0985
     10 N         138.5103  138.7912  167.8057 N.ar    1  UNL1       -0.2439
     11 C         139.4353  139.9359  168.0959 C.ar    1  UNL1        0.0811
     12 C         140.1225  140.0261  169.4261 C.ar    1  UNL1        0.0214
     13 C         141.0474  141.1708  169.7164 C.ar    1  UNL1        0.0312
     14 C         141.2851  142.2252  168.6763 C.ar    1  UNL1        0.1402
     15 F         142.2101  143.3699  168.9665 F       1  UNL1       -0.2042
     16 C         140.5979  142.1350  167.3461 C.ar    1  UNL1        0.0308
     17 C         139.6729  140.9903  167.0559 C.ar    1  UNL1        0.0160
     18 C         139.7510  146.5659  161.9095 C.3     1  UNL1        0.0096
     19 C         139.9367  145.1178  161.5655 C.3     1  UNL1        0.0768
     20 C         140.3601  144.7241  160.1814 C.2     1  UNL1        0.2256
     21 O         139.4397  143.9140  159.3174 O.2     1  UNL1       -0.2748
     22 N         141.7041  145.1404  159.6613 N.am    1  UNL1       -0.2839
     23 H         142.3082  145.6720  160.2284 H       1  UNL1        0.1549
     24 C         142.1275  144.7466  158.2773 C.ar    1  UNL1        0.0504
     25 C         141.8054  145.6359  157.1129 C.ar    1  UNL1        0.0155
     26 C         142.2288  145.2421  155.7289 C.ar    1  UNL1        0.0127
     27 C         142.9744  143.9592  155.5091 C.ar    1  UNL1        0.0578
     28 CL        143.3979  143.5655  154.1250 Cl      1  UNL1       -0.0822
     29 C         143.2965  143.0700  156.6734 C.ar    1  UNL1        0.0127
     30 C         142.8731  143.4638  158.0575 C.ar    1  UNL1        0.0155
@<TRIPOS>BOND
     1    19    18    1
     2    19    20    1
     3    20    21    2
     4    20    22   am
     5    22    24    1
     6    24    25   ar
     7    25    26   ar
     8    26    27   ar
     9    27    28    1
    10    27    29   ar
    11    29    30   ar
    12    19     1    1
    13     1     2    1
    14     2     3    1
    15     3     4    1
    16     4     7    1
    17     7     8   ar
    18     8     9   ar
    19     9    10   ar
    20    10    11   ar
    21    11    12   ar
    22    12    13   ar
    23    13    14   ar
    24    14    15    1
    25    14    16   ar
    26    16    17   ar
    27     4     5    1
    28     5     6    1
    29    30    24   ar
    30     6     1    1
    31    17     7   ar
    32    17    11   ar
    33    22    23    1
@<TRIPOS>MOLECULE
*****
 30 33 0 0 0
SMALL
GASTEIGER

@<TRIPOS>ATOM
      1 C         141.9405  138.3696  158.2863 C.3     1  UNL1        0.0086
      2 C         142.7355  138.4938  159.5523 C.3     1  UNL1        0.0008
      3 C         142.0315  138.6393  160.8687 C.3     1  UNL1        0.0044
      4 C         140.5325  138.6607  160.9193 C.3     1  UNL1        0.0224
      5 C         139.7375  138.5365  159.6535 C.3     1  UNL1        0.0044
      6 C         140.4415  138.3910  158.3369 C.3     1  UNL1        0.0008
      7 C         139.8285  138.8062  162.2359 C.ar    1  UNL1       -0.0194
      8 C         139.6836  137.6212  163.1439 C.ar    1  UNL1        0.0164
      9 C         138.9796  137.7667  164.4604 C.ar    1  UNL1        0.0985
     10 N         138.4206  139.0974  164.8689 N.ar    1  UNL1       -0.2439
     11 C         138.5655  140.2825  163.9609 C.ar    1  UNL1        0.0811
     12 C         138.0065  141.6131  164.3694 C.ar    1  UNL1        0.0214
     13 C         138.1514  142.7982  163.4613 C.ar    1  UNL1        0.0312
     14 C         138.8554  142.6527  162.1448 C.ar    1  UNL1        0.1402
     15 F         139.0003  143.8377  161.2367 F       1  UNL1       -0.2042
     16 C         139.4144  141.3220  161.7363 C.ar    1  UNL1        0.0308
     17 C         139.2695  140.1369  162.6444 C.ar    1  UNL1        0.0160
     18 C         142.7507  139.3982  156.0424 C.3     1  UNL1        0.0096
     19 C         142.6445  138.2241  156.9698 C.3     1  UNL1        0.0768
     20 C         143.2422  136.9045  156.5808 C.2     1  UNL1        0.2256
     21 O         144.4751  136.8620  155.7275 O.2     1  UNL1       -0.2748
     22 N         142.6071  135.6274  157.0450 N.am    1  UNL1       -0.2839
     23 H         141.7979  135.6553  157.6051 H       1  UNL1        0.1549
     24 C         143.2048  134.3078  156.6560 C.ar    1  UNL1        0.0504
     25 C         142.8945  133.7098  155.3158 C.ar    1  UNL1        0.0155
     26 C         143.4923  132.3902  154.9267 C.ar    1  UNL1        0.0127
     27 C         144.4003  131.6686  155.8780 C.ar    1  UNL1        0.0578
     28 CL        144.9981  130.3490  155.4889 Cl      1  UNL1       -0.0822
     29 C         144.7106  132.2666  157.2181 C.ar    1  UNL1        0.0127
     30 C         144.1128  133.5862  157.6072 C.ar    1  UNL1        0.0155
@<TRIPOS>BOND
     1    19    18    1
     2    19    20    1
     3    20    21    2
     4    20    22   am
     5    22    24    1
     6    24    25   ar
     7    25    26   ar
     8    26    27   ar
     9    27    28    1
    10    27    29   ar
    11    29    30   ar
    12    19     1    1
    13     1     2    1
    14     2     3    1
    15     3     4    1
    16     4     7    1
    17     7     8   ar
    18     8     9   ar
    19     9    10   ar
    20    10    11   ar
    21    11    12   ar
    22    12    13   ar
    23    13    14   ar
    24    14    15    1
    25    14    16   ar
    26    16    17   ar
    27     4     5    1
    28     5     6    1
    29    30    24   ar
    30     6     1    1
    31    17     7   ar
    32    17    11   ar
    33    22    23    1
@<TRIPOS>MOLECULE
*****
 30 33 0 0 0
SMALL
GASTEIGER

@<TRIPOS>ATOM
      1 C         140.8629  143.9721  162.7786 C.3     1  UNL1        0.0086
      2 C         142.1871  144.1354  163.4641 C.3     1  UNL1        0.0008
      3 C         142.6031  143.1680  164.5323 C.3     1  UNL1        0.0044
      4 C         141.6949  142.0372  164.9150 C.3     1  UNL1        0.0224
      5 C         140.3707  141.8738  164.2295 C.3     1  UNL1        0.0044
      6 C         139.9547  142.8413  163.1613 C.3     1  UNL1        0.0008
      7 C         142.1109  141.0697  165.9832 C.ar    1  UNL1       -0.0194
      8 C         142.7867  139.7840  165.6087 C.ar    1  UNL1        0.0164
      9 C         143.2027  138.8166  166.6769 C.ar    1  UNL1        0.0985
     10 N         142.9428  139.1349  168.1196 N.ar    1  UNL1       -0.2439
     11 C         142.2670  140.4206  168.4940 C.ar    1  UNL1        0.0811
     12 C         142.0072  140.7389  169.9366 C.ar    1  UNL1        0.0214
     13 C         141.3314  142.0246  170.3111 C.ar    1  UNL1        0.0312
     14 C         140.9154  142.9921  169.2429 C.ar    1  UNL1        0.1402
     15 F         140.2396  144.2778  169.6173 F       1  UNL1       -0.2042
     16 C         141.1752  142.6738  167.8002 C.ar    1  UNL1        0.0308
     17 C         141.8511  141.3880  167.4258 C.ar    1  UNL1        0.0160
     18 C         139.7900  146.2346  162.0861 C.3     1  UNL1        0.0096
     19 C         140.4469  144.9395  161.7105 C.3     1  UNL1        0.0768
     20 C         140.6880  144.6119  160.2667 C.2     1  UNL1        0.2256
     21 O         139.5705  144.0739  159.4230 O.2     1  UNL1       -0.2748
     22 N         142.0464  144.8223  159.6665 N.am    1  UNL1       -0.2839
     23 H         142.7799  145.1753  160.2202 H       1  UNL1        0.1549
     24 C         142.2874  144.4946  158.2227 C.ar    1  UNL1        0.0504
     25 C         142.0111  145.5212  157.1644 C.ar    1  UNL1        0.0155
     26 C         142.2521  145.1936  155.7206 C.ar    1  UNL1        0.0127
     27 C         142.7695  143.8394  155.3351 C.ar    1  UNL1        0.0578
     28 CL        143.0105  143.5118  153.8913 Cl      1  UNL1       -0.0822
     29 C         143.0458  142.8129  156.3933 C.ar    1  UNL1        0.0127
     30 C         142.8048  143.1405  157.8371 C.ar    1  UNL1        0.0155
@<TRIPOS>BOND
     1    19    18    1
     2    19    20    1
     3    20    21    2
     4    20    22   am
     5    22    24    1
     6    24    25   ar
     7    25    26   ar
     8    26    27   ar
     9    27    28    1
    10    27    29   ar
    11    29    30   ar
    12    19     1    1
    13     1     2    1
    14     2     3    1
    15     3     4    1
    16     4     7    1
    17     7     8   ar
    18     8     9   ar
    19     9    10   ar
    20    10    11   ar
    21    11    12   ar
    22    12    13   ar
    23    13    14   ar
    24    14    15    1
    25    14    16   ar
    26    16    17   ar
    27     4     5    1
    28     5     6    1
    29    30    24   ar
    30     6     1    1
    31    17     7   ar
    32    17    11   ar
    33    22    23    1
@<TRIPOS>MOLECULE
*****
 30 33 0 0 0
SMALL
GASTEIGER

@<TRIPOS>ATOM
      1 C         142.8393  141.0478  168.6102 C.3     1  UNL1        0.0086
      2 C         142.3291  140.2375  167.4555 C.3     1  UNL1        0.0008
      3 C         142.4921  140.7446  166.0533 C.3     1  UNL1        0.0044
      4 C         143.1654  142.0619  165.8056 C.3     1  UNL1        0.0224
      5 C         143.6756  142.8722  166.9602 C.3     1  UNL1        0.0044
      6 C         143.5126  142.3652  168.3625 C.3     1  UNL1        0.0008
      7 C         143.3285  142.5689  164.4033 C.ar    1  UNL1       -0.0194
      8 C         144.5211  142.1586  163.5914 C.ar    1  UNL1        0.0164
      9 C         144.6840  142.6656  162.1891 C.ar    1  UNL1        0.0985
     10 N         143.6544  143.5829  161.5988 N.ar    1  UNL1       -0.2439
     11 C         142.4618  143.9932  162.4108 C.ar    1  UNL1        0.0811
     12 C         141.4322  144.9106  161.8205 C.ar    1  UNL1        0.0214
     13 C         140.2396  145.3209  162.6325 C.ar    1  UNL1        0.0312
     14 C         140.0766  144.8138  164.0348 C.ar    1  UNL1        0.1402
     15 F         138.8840  145.2241  164.8467 F       1  UNL1       -0.2042
     16 C         141.1062  143.8965  164.6251 C.ar    1  UNL1        0.0308
     17 C         142.2988  143.4862  163.8130 C.ar    1  UNL1        0.0160
     18 C         141.9779  141.3835  171.0381 C.3     1  UNL1        0.0096
     19 C         142.6763  140.5408  170.0124 C.3     1  UNL1        0.0768
     20 C         143.2116  139.1911  170.3889 C.2     1  UNL1        0.2256
     21 O         142.7976  137.9767  169.6119 O.2     1  UNL1       -0.2748
     22 N         144.1608  139.0558  171.5424 N.am    1  UNL1       -0.2839
     23 H         144.4326  139.8529  172.0523 H       1  UNL1        0.1549
     24 C         144.6961  137.7061  171.9189 C.ar    1  UNL1        0.0504
     25 C         144.1847  136.4770  171.2276 C.ar    1  UNL1        0.0155
     26 C         144.7200  135.1272  171.6041 C.ar    1  UNL1        0.0127
     27 C         145.7667  135.0067  172.6719 C.ar    1  UNL1        0.0578
     28 CL        146.3020  133.6570  173.0484 Cl      1  UNL1       -0.0822
     29 C         146.2780  136.2358  173.3630 C.ar    1  UNL1        0.0127
     30 C         145.7428  137.5855  172.9865 C.ar    1  UNL1        0.0155
@<TRIPOS>BOND
     1    19    18    1
     2    19    20    1
     3    20    21    2
     4    20    22   am
     5    22    24    1
     6    24    25   ar
     7    25    26   ar
     8    26    27   ar
     9    27    28    1
    10    27    29   ar
    11    29    30   ar
    12    19     1    1
    13     1     2    1
    14     2     3    1
    15     3     4    1
    16     4     7    1
    17     7     8   ar
    18     8     9   ar
    19     9    10   ar
    20    10    11   ar
    21    11    12   ar
    22    12    13   ar
    23    13    14   ar
    24    14    15    1
    25    14    16   ar
    26    16    17   ar
    27     4     5    1
    28     5     6    1
    29    30    24   ar
    30     6     1    1
    31    17     7   ar
    32    17    11   ar
    33    22    23    1
@<TRIPOS>MOLECULE
*****
 30 33 0 0 0
SMALL
GASTEIGER

@<TRIPOS>ATOM
      1 C         139.4565  139.8185  163.5000 C.3     1  UNL1        0.0086
      2 C         139.9738  138.7032  164.3595 C.3     1  UNL1        0.0008
      3 C         140.0894  138.8915  165.8431 C.3     1  UNL1        0.0044
      4 C         139.6879  140.1950  166.4673 C.3     1  UNL1        0.0224
      5 C         139.1706  141.3102  165.6079 C.3     1  UNL1        0.0044
      6 C         139.0549  141.1220  164.1242 C.3     1  UNL1        0.0008
      7 C         139.8036  140.3832  167.9510 C.ar    1  UNL1       -0.0194
      8 C         138.7425  139.8393  168.8610 C.ar    1  UNL1        0.0164
      9 C         138.8582  140.0275  170.3446 C.ar    1  UNL1        0.0985
     10 N         140.0351  140.7597  170.9182 N.ar    1  UNL1       -0.2439
     11 C         141.0962  141.3036  170.0082 C.ar    1  UNL1        0.0811
     12 C         142.2730  142.0357  170.5818 C.ar    1  UNL1        0.0214
     13 C         143.3341  142.5796  169.6718 C.ar    1  UNL1        0.0312
     14 C         143.2184  142.3914  168.1881 C.ar    1  UNL1        0.1402
     15 F         144.2795  142.9353  167.2780 F       1  UNL1       -0.2042
     16 C         142.0415  141.6593  167.6145 C.ar    1  UNL1        0.0308
     17 C         140.9804  141.1153  168.5246 C.ar    1  UNL1        0.0160
     18 C         139.3122  138.2474  161.4359 C.3     1  UNL1        0.0096
     19 C         139.3408  139.6302  162.0164 C.3     1  UNL1        0.0768
     20 C         139.2537  140.8247  161.1133 C.2     1  UNL1        0.2256
     21 O         137.9161  141.3100  160.6385 O.2     1  UNL1       -0.2748
     22 N         140.5041  141.5340  160.6851 N.am    1  UNL1       -0.2839
     23 H         141.3819  141.2155  160.9967 H       1  UNL1        0.1549
     24 C         140.4169  142.7285  159.7820 C.ar    1  UNL1        0.0504
     25 C         140.3925  142.5433  158.2936 C.ar    1  UNL1        0.0155
     26 C         140.3053  143.7378  157.3906 C.ar    1  UNL1        0.0127
     27 C         140.2427  145.1175  157.9759 C.ar    1  UNL1        0.0578
     28 CL        140.1555  146.3120  157.0728 Cl      1  UNL1       -0.0822
     29 C         140.2671  145.3027  159.4642 C.ar    1  UNL1        0.0127
     30 C         140.3543  144.1082  160.3672 C.ar    1  UNL1        0.0155
@<TRIPOS>BOND
     1    19    18    1
     2    19    20    1
     3    20    21    2
     4    20    22   am
     5    22    24    1
     6    24    25   ar
     7    25    26   ar
     8    26    27   ar
     9    27    28    1
    10    27    29   ar
    11    29    30   ar
    12    19     1    1
    13     1     2    1
    14     2     3    1
    15     3     4    1
    16     4     7    1
    17     7     8   ar
    18     8     9   ar
    19     9    10   ar
    20    10    11   ar
    21    11    12   ar
    22    12    13   ar
    23    13    14   ar
    24    14    15    1
    25    14    16   ar
    26    16    17   ar
    27     4     5    1
    28     5     6    1
    29    30    24   ar
    30     6     1    1
    31    17     7   ar
    32    17    11   ar
    33    22    23    1
@<TRIPOS>MOLECULE
*****
 30 33 0 0 0
SMALL
GASTEIGER

@<TRIPOS>ATOM
      1 C         142.5301  137.9680  156.4711 C.3     1  UNL1        0.0086
      2 C         143.7966  137.4732  155.8374 C.3     1  UNL1        0.0008
      3 C         143.8088  136.1608  155.1112 C.3     1  UNL1        0.0044
      4 C         142.5546  135.3432  155.0185 C.3     1  UNL1        0.0224
      5 C         141.2883  135.8380  155.6520 C.3     1  UNL1        0.0044
      6 C         141.2760  137.1504  156.3784 C.3     1  UNL1        0.0008
      7 C         142.5669  134.0308  154.2921 C.ar    1  UNL1       -0.0194
      8 C         141.7950  133.8727  153.0158 C.ar    1  UNL1        0.0164
      9 C         141.8073  132.5604  152.2895 C.ar    1  UNL1        0.0985
     10 N         142.5915  131.4061  152.8396 N.ar    1  UNL1       -0.2439
     11 C         143.3634  131.5641  154.1160 C.ar    1  UNL1        0.0811
     12 C         144.1476  130.4098  154.6661 C.ar    1  UNL1        0.0214
     13 C         144.9195  130.5679  155.9425 C.ar    1  UNL1        0.0312
     14 C         144.9072  131.8803  156.6688 C.ar    1  UNL1        0.1402
     15 F         145.6791  132.0384  157.9452 F       1  UNL1       -0.2042
     16 C         144.1230  133.0346  156.1187 C.ar    1  UNL1        0.0308
     17 C         143.3511  132.8765  154.8423 C.ar    1  UNL1        0.0160
     18 C         142.6328  140.5636  156.4293 C.3     1  UNL1        0.0096
     19 C         142.5179  139.2804  157.1973 C.3     1  UNL1        0.0768
     20 C         142.3908  139.3094  158.6917 C.2     1  UNL1        0.2256
     21 O         141.4158  140.2446  159.3434 O.2     1  UNL1       -0.2748
     22 N         143.2387  138.4034  159.5343 N.am    1  UNL1       -0.2839
     23 H         143.8786  137.7896  159.1065 H       1  UNL1        0.1549
     24 C         143.1116  138.4324  161.0286 C.ar    1  UNL1        0.0504
     25 C         144.1288  139.1635  161.8537 C.ar    1  UNL1        0.0155
     26 C         144.0017  139.1926  163.3481 C.ar    1  UNL1        0.0127
     27 C         142.8573  138.4906  164.0172 C.ar    1  UNL1        0.0578
     28 CL        142.7302  138.5197  165.5115 Cl      1  UNL1       -0.0822
     29 C         141.8402  137.7595  163.1921 C.ar    1  UNL1        0.0127
     30 C         141.9673  137.7305  161.6978 C.ar    1  UNL1        0.0155
@<TRIPOS>BOND
     1    19    18    1
     2    19    20    1
     3    20    21    2
     4    20    22   am
     5    22    24    1
     6    24    25   ar
     7    25    26   ar
     8    26    27   ar
     9    27    28    1
    10    27    29   ar
    11    29    30   ar
    12    19     1    1
    13     1     2    1
    14     2     3    1
    15     3     4    1
    16     4     7    1
    17     7     8   ar
    18     8     9   ar
    19     9    10   ar
    20    10    11   ar
    21    11    12   ar
    22    12    13   ar
    23    13    14   ar
    24    14    15    1
    25    14    16   ar
    26    16    17   ar
    27     4     5    1
    28     5     6    1
    29    30    24   ar
    30     6     1    1
    31    17     7   ar
    32    17    11   ar
    33    22    23    1
