@<TRIPOS>MOLECULE
*****
 37 41 0 0 0
SMALL
GASTEIGER

@<TRIPOS>ATOM
      1 C         141.2388  138.2479  159.1915 C.3     1  UNL1        0.0769
      2 N         140.0257  138.8720  163.4797 N.pl3   1  UNL1       -0.3035
      3 C         141.1978  137.9953  163.1519 C.3     1  UNL1        0.1082
      4 C         141.6022  137.7873  161.7225 C.3     1  UNL1        0.0938
      5 N         140.8345  138.4559  160.6209 N.3     1  UNL1       -0.2695
      6 C         139.6623  139.3327  160.9487 C.3     1  UNL1        0.0938
      7 C         139.2579  139.5407  162.3781 C.3     1  UNL1        0.1082
      8 C         138.8125  139.4961  167.7679 C.ar    1  UNL1        0.0700
      9 C         137.9759  138.6342  166.8696 C.ar    1  UNL1        0.0116
     10 C         138.3803  138.4261  165.4402 C.ar    1  UNL1        0.0167
     11 C         139.6213  139.0800  164.9091 C.ar    1  UNL1        0.0658
     12 C         140.4581  139.9420  165.8074 C.ar    1  UNL1        0.0952
     13 N         141.6991  140.5959  165.2763 N.ar    1  UNL1       -0.2426
     14 C         142.5358  141.4579  166.1746 C.ar    1  UNL1        0.0989
     15 C         142.1314  141.6659  167.6040 C.ar    1  UNL1        0.0207
     16 C         140.8904  141.0120  168.1351 C.ar    1  UNL1        0.0038
     17 C         140.0537  140.1501  167.2368 C.ar    1  UNL1        0.0285
     18 N         138.0038  139.9122  170.6267 N.1     1  UNL1       -0.1908
     19 C         138.4082  139.7041  169.1973 C.1     1  UNL1        0.1005
     20 C         142.1188  139.2516  158.5073 C.3     1  UNL1        0.0437
     21 C         142.5384  140.4972  159.2301 C.ar    1  UNL1       -0.0206
     22 C         141.7901  141.7789  159.0120 C.ar    1  UNL1       -0.0011
     23 C         142.2097  143.0246  159.7347 C.ar    1  UNL1        0.0366
     24 C         143.3775  142.9886  160.6755 C.ar    1  UNL1        0.1385
     25 C         144.1257  141.7069  160.8935 C.ar    1  UNL1        0.0366
     26 C         143.7061  140.4613  160.1708 C.ar    1  UNL1       -0.0011
     27 O         143.7970  144.2342  161.3982 O.3     1  UNL1       -0.4754
     28 C         144.1273  144.1778  162.8604 C.3     1  UNL1        0.2068
     29 C         143.1762  144.7542  163.8669 C.3     1  UNL1        0.0646
     30 C         141.8722  145.3422  163.4157 C.3     1  UNL1        0.0759
     31 N         140.6097  144.5396  163.5249 N.3     1  UNL1       -0.2726
     32 C         139.8577  144.3319  162.2437 C.3     1  UNL1        0.0721
     33 C         138.5764  143.5841  162.0222 C.3     1  UNL1        0.0173
     34 C         137.7307  142.8593  163.0269 C.3     1  UNL1        0.0015
     35 C         137.9574  142.7033  164.5014 C.3     1  UNL1        0.0015
     36 C         139.0859  143.2337  165.3354 C.3     1  UNL1        0.0173
     37 C         140.2663  144.0509  164.9007 C.3     1  UNL1        0.0721
@<TRIPOS>BOND
     1    18    19    3
     2    19     8    1
     3     8     9   ar
     4     9    10   ar
     5    10    11   ar
     6    11     2    1
     7     2     3    1
     8     3     4    1
     9     4     5    1
    10     5     1    1
    11     1    20    1
    12    20    21    1
    13    21    22   ar
    14    22    23   ar
    15    23    24   ar
    16    24    27    1
    17    27    28    1
    18    28    29    1
    19    29    30    1
    20    30    31    1
    21    31    32    1
    22    32    33    1
    23    33    34    1
    24    34    35    1
    25    35    36    1
    26    36    37    1
    27    24    25   ar
    28    25    26   ar
    29     5     6    1
    30     6     7    1
    31    11    12   ar
    32    12    13   ar
    33    13    14   ar
    34    14    15   ar
    35    15    16   ar
    36    16    17   ar
    37    17     8   ar
    38     7     2    1
    39    17    12   ar
    40    26    21   ar
    41    37    31    1
@<TRIPOS>MOLECULE
*****
 37 41 0 0 0
SMALL
GASTEIGER

@<TRIPOS>ATOM
      1 C         139.7421  146.0479  161.4904 C.3     1  UNL1        0.0769
      2 N         140.9071  143.2143  164.7863 N.pl3   1  UNL1       -0.3035
      3 C         139.4929  143.2435  164.2874 C.3     1  UNL1        0.1082
      4 C         139.1045  144.1881  163.1888 C.3     1  UNL1        0.0938
      5 N         140.1304  145.1034  162.5890 N.3     1  UNL1       -0.2695
      6 C         141.5448  145.0741  163.0880 C.3     1  UNL1        0.0938
      7 C         141.9331  144.1296  164.1866 C.3     1  UNL1        0.1082
      8 C         142.0722  140.3806  168.0823 C.ar    1  UNL1        0.0700
      9 C         141.3180  141.6365  168.4046 C.ar    1  UNL1        0.0116
     10 C         140.9297  142.5811  167.3059 C.ar    1  UNL1        0.0167
     11 C         141.2955  142.2697  165.8850 C.ar    1  UNL1        0.0658
     12 C         142.0497  141.0138  165.5626 C.ar    1  UNL1        0.0952
     13 N         142.4155  140.7024  164.1416 N.ar    1  UNL1       -0.2426
     14 C         143.1696  139.4465  163.8193 C.ar    1  UNL1        0.0989
     15 C         143.5580  138.5020  164.9179 C.ar    1  UNL1        0.0207
     16 C         143.1922  138.8133  166.3389 C.ar    1  UNL1        0.0038
     17 C         142.4380  140.0692  166.6612 C.ar    1  UNL1        0.0285
     18 N         142.8489  138.4915  170.2796 N.1     1  UNL1       -0.1908
     19 C         142.4605  139.4361  169.1809 C.1     1  UNL1        0.1005
     20 C         140.2157  145.8029  160.0884 C.3     1  UNL1        0.0437
     21 C         140.5431  144.4094  159.6401 C.ar    1  UNL1       -0.0206
     22 C         139.4394  143.4534  159.2964 C.ar    1  UNL1       -0.0011
     23 C         139.7669  142.0599  158.8481 C.ar    1  UNL1        0.0366
     24 C         141.1979  141.6225  158.7434 C.ar    1  UNL1        0.1385
     25 C         142.3014  142.5785  159.0871 C.ar    1  UNL1        0.0366
     26 C         141.9740  143.9720  159.5354 C.ar    1  UNL1       -0.0011
     27 O         141.5253  140.2290  158.2951 O.3     1  UNL1       -0.4754
     28 C         140.6996  139.0728  158.7763 C.3     1  UNL1        0.2068
     29 C         140.7084  138.6980  160.2287 C.3     1  UNL1        0.0646
     30 C         139.4385  138.2645  160.8991 C.3     1  UNL1        0.0759
     31 N         139.2275  138.5433  162.3578 N.3     1  UNL1       -0.2726
     32 C         139.9335  137.6196  163.3057 C.3     1  UNL1        0.0721
     33 C         139.9246  137.6335  164.8056 C.3     1  UNL1        0.0173
     34 C         139.2077  138.5743  165.7281 C.3     1  UNL1        0.0015
     35 C         138.3226  139.7337  165.3784 C.3     1  UNL1        0.0015
     36 C         137.9357  140.2386  164.0200 C.3     1  UNL1        0.0173
     37 C         138.3384  139.7087  162.6757 C.3     1  UNL1        0.0721
@<TRIPOS>BOND
     1    18    19    3
     2    19     8    1
     3     8     9   ar
     4     9    10   ar
     5    10    11   ar
     6    11     2    1
     7     2     3    1
     8     3     4    1
     9     4     5    1
    10     5     1    1
    11     1    20    1
    12    20    21    1
    13    21    22   ar
    14    22    23   ar
    15    23    24   ar
    16    24    27    1
    17    27    28    1
    18    28    29    1
    19    29    30    1
    20    30    31    1
    21    31    32    1
    22    32    33    1
    23    33    34    1
    24    34    35    1
    25    35    36    1
    26    36    37    1
    27    24    25   ar
    28    25    26   ar
    29     5     6    1
    30     6     7    1
    31    11    12   ar
    32    12    13   ar
    33    13    14   ar
    34    14    15   ar
    35    15    16   ar
    36    16    17   ar
    37    17     8   ar
    38     7     2    1
    39    17    12   ar
    40    26    21   ar
    41    37    31    1
@<TRIPOS>MOLECULE
*****
 37 41 0 0 0
SMALL
GASTEIGER

@<TRIPOS>ATOM
      1 C         141.4131  145.0980  159.5079 C.3     1  UNL1        0.0769
      2 N         141.1736  143.0127  163.4883 N.pl3   1  UNL1       -0.3035
      3 C         139.9862  143.0182  162.5719 C.3     1  UNL1        0.1082
      4 C         140.0660  143.7133  161.2450 C.3     1  UNL1        0.0938
      5 N         141.3332  144.4029  160.8347 N.3     1  UNL1       -0.2695
      6 C         142.5208  144.3975  161.7512 C.3     1  UNL1        0.0938
      7 C         142.4409  143.7024  163.0780 C.3     1  UNL1        0.1082
      8 C         140.9341  140.9274  167.4688 C.ar    1  UNL1        0.0700
      9 C         140.1478  142.1824  167.2311 C.ar    1  UNL1        0.0116
     10 C         140.2276  142.8775  165.9043 C.ar    1  UNL1        0.0167
     11 C         141.0938  142.3176  164.8151 C.ar    1  UNL1        0.0658
     12 C         141.8801  141.0625  165.0528 C.ar    1  UNL1        0.0952
     13 N         142.7463  140.5026  163.9637 N.ar    1  UNL1       -0.2426
     14 C         143.5326  139.2475  164.2014 C.ar    1  UNL1        0.0989
     15 C         143.4528  138.5524  165.5282 C.ar    1  UNL1        0.0207
     16 C         142.5866  139.1123  166.6173 C.ar    1  UNL1        0.0038
     17 C         141.8003  140.3674  166.3796 C.ar    1  UNL1        0.0285
     18 N         140.7745  139.5372  170.1224 N.1     1  UNL1       -0.1908
     19 C         140.8543  140.2323  168.7956 C.1     1  UNL1        0.1005
     20 C         142.1224  144.4434  158.3597 C.3     1  UNL1        0.0437
     21 C         142.4267  142.9753  158.4049 C.ar    1  UNL1       -0.0206
     22 C         141.3937  141.9813  157.9632 C.ar    1  UNL1       -0.0011
     23 C         141.6980  140.5132  158.0084 C.ar    1  UNL1        0.0366
     24 C         143.0353  140.0391  158.4953 C.ar    1  UNL1        0.1385
     25 C         144.0682  141.0331  158.9370 C.ar    1  UNL1        0.0366
     26 C         143.7639  142.5012  158.8918 C.ar    1  UNL1       -0.0011
     27 O         143.3396  138.5710  158.5405 O.3     1  UNL1       -0.4754
     28 C         142.7438  137.7144  159.6181 C.3     1  UNL1        0.2068
     29 C         142.1498  138.3509  160.8396 C.3     1  UNL1        0.0646
     30 C         140.6601  138.4448  160.9873 C.3     1  UNL1        0.0759
     31 N         140.0459  138.5332  162.3530 N.3     1  UNL1       -0.2726
     32 C         139.0953  139.6738  162.5664 C.3     1  UNL1        0.0721
     33 C         138.3276  140.0321  163.8042 C.3     1  UNL1        0.0173
     34 C         138.3208  139.3386  165.1343 C.3     1  UNL1        0.0015
     35 C         139.0801  138.1153  165.5550 C.3     1  UNL1        0.0015
     36 C         140.0337  137.2834  164.7495 C.3     1  UNL1        0.0173
     37 C         140.4635  137.4694  163.3245 C.3     1  UNL1        0.0721
@<TRIPOS>BOND
     1    18    19    3
     2    19     8    1
     3     8     9   ar
     4     9    10   ar
     5    10    11   ar
     6    11     2    1
     7     2     3    1
     8     3     4    1
     9     4     5    1
    10     5     1    1
    11     1    20    1
    12    20    21    1
    13    21    22   ar
    14    22    23   ar
    15    23    24   ar
    16    24    27    1
    17    27    28    1
    18    28    29    1
    19    29    30    1
    20    30    31    1
    21    31    32    1
    22    32    33    1
    23    33    34    1
    24    34    35    1
    25    35    36    1
    26    36    37    1
    27    24    25   ar
    28    25    26   ar
    29     5     6    1
    30     6     7    1
    31    11    12   ar
    32    12    13   ar
    33    13    14   ar
    34    14    15   ar
    35    15    16   ar
    36    16    17   ar
    37    17     8   ar
    38     7     2    1
    39    17    12   ar
    40    26    21   ar
    41    37    31    1
@<TRIPOS>MOLECULE
*****
 37 41 0 0 0
SMALL
GASTEIGER

@<TRIPOS>ATOM
      1 C         138.9127  138.0373  160.9483 C.3     1  UNL1        0.0769
      2 N         139.6141  139.5436  165.1303 N.pl3   1  UNL1       -0.3035
      3 C         138.8740  140.3941  164.1410 C.3     1  UNL1        0.1082
      4 C         138.6402  139.8920  162.7470 C.3     1  UNL1        0.0938
      5 N         139.1465  138.5394  162.3423 N.3     1  UNL1       -0.2695
      6 C         139.8867  137.6888  163.3316 C.3     1  UNL1        0.0938
      7 C         140.1205  138.1909  164.7256 C.3     1  UNL1        0.1082
      8 C         140.3155  141.0499  169.3123 C.ar    1  UNL1        0.0700
      9 C         139.1074  140.2142  169.0089 C.ar    1  UNL1        0.0116
     10 C         138.8736  139.7121  167.6149 C.ar    1  UNL1        0.0167
     11 C         139.8479  140.0457  166.5243 C.ar    1  UNL1        0.0658
     12 C         141.0561  140.8814  166.8277 C.ar    1  UNL1        0.0952
     13 N         142.0304  141.2150  165.7371 N.ar    1  UNL1       -0.2426
     14 C         143.2385  142.0507  166.0405 C.ar    1  UNL1        0.0989
     15 C         143.4723  142.5528  167.4345 C.ar    1  UNL1        0.0207
     16 C         142.4980  142.2192  168.5251 C.ar    1  UNL1        0.0038
     17 C         141.2899  141.3835  168.2217 C.ar    1  UNL1        0.0285
     18 N         140.7831  142.0541  172.1003 N.1     1  UNL1       -0.1908
     19 C         140.5493  141.5520  170.7063 C.1     1  UNL1        0.1005
     20 C         139.9856  138.1803  159.9098 C.3     1  UNL1        0.0437
     21 C         141.1049  139.1570  160.1174 C.ar    1  UNL1       -0.0206
     22 C         142.3682  138.7170  160.7960 C.ar    1  UNL1       -0.0011
     23 C         143.4875  139.6938  161.0036 C.ar    1  UNL1        0.0366
     24 C         143.3435  141.1106  160.5324 C.ar    1  UNL1        0.1385
     25 C         142.0803  141.5506  159.8538 C.ar    1  UNL1        0.0366
     26 C         140.9610  140.5738  159.6462 C.ar    1  UNL1       -0.0011
     27 O         144.4628  142.0874  160.7399 O.3     1  UNL1       -0.4754
     28 C         144.3507  143.1422  161.8006 C.3     1  UNL1        0.2068
     29 C         143.0766  143.9187  161.9545 C.3     1  UNL1        0.0646
     30 C         142.4559  144.0804  163.3104 C.3     1  UNL1        0.0759
     31 N         140.9647  144.0286  163.4636 N.3     1  UNL1       -0.2726
     32 C         140.4408  144.3277  164.8370 C.3     1  UNL1        0.0721
     33 C         139.0173  144.3565  165.3091 C.3     1  UNL1        0.0173
     34 C         137.7662  144.0934  164.5246 C.3     1  UNL1        0.0015
     35 C         137.6295  143.7365  163.0741 C.3     1  UNL1        0.0015
     36 C         138.7103  143.5545  162.0499 C.3     1  UNL1        0.0173
     37 C         140.1946  143.6845  162.2233 C.3     1  UNL1        0.0721
@<TRIPOS>BOND
     1    18    19    3
     2    19     8    1
     3     8     9   ar
     4     9    10   ar
     5    10    11   ar
     6    11     2    1
     7     2     3    1
     8     3     4    1
     9     4     5    1
    10     5     1    1
    11     1    20    1
    12    20    21    1
    13    21    22   ar
    14    22    23   ar
    15    23    24   ar
    16    24    27    1
    17    27    28    1
    18    28    29    1
    19    29    30    1
    20    30    31    1
    21    31    32    1
    22    32    33    1
    23    33    34    1
    24    34    35    1
    25    35    36    1
    26    36    37    1
    27    24    25   ar
    28    25    26   ar
    29     5     6    1
    30     6     7    1
    31    11    12   ar
    32    12    13   ar
    33    13    14   ar
    34    14    15   ar
    35    15    16   ar
    36    16    17   ar
    37    17     8   ar
    38     7     2    1
    39    17    12   ar
    40    26    21   ar
    41    37    31    1
@<TRIPOS>MOLECULE
*****
 37 41 0 0 0
SMALL
GASTEIGER

@<TRIPOS>ATOM
      1 C         142.3907  138.2292  157.7799 C.3     1  UNL1        0.0769
      2 N         140.8717  138.7475  161.9840 N.pl3   1  UNL1       -0.3035
      3 C         140.0678  139.2628  160.8272 C.3     1  UNL1        0.1082
      4 C         140.5742  139.0900  159.4259 C.3     1  UNL1        0.0938
      5 N         141.8844  138.4019  159.1813 N.3     1  UNL1       -0.2695
      6 C         142.6884  137.8866  160.3381 C.3     1  UNL1        0.0938
      7 C         142.1820  138.0594  161.7395 C.3     1  UNL1        0.1082
      8 C         139.3528  139.2659  166.1880 C.ar    1  UNL1        0.0700
      9 C         139.0250  138.0196  165.4205 C.ar    1  UNL1        0.0116
     10 C         139.5314  137.8468  164.0192 C.ar    1  UNL1        0.0167
     11 C         140.3654  138.9203  163.3853 C.ar    1  UNL1        0.0658
     12 C         140.6932  140.1668  164.1529 C.ar    1  UNL1        0.0952
     13 N         141.5273  141.2403  163.5191 N.ar    1  UNL1       -0.2426
     14 C         141.8551  142.4867  164.2866 C.ar    1  UNL1        0.0989
     15 C         141.3488  142.6594  165.6880 C.ar    1  UNL1        0.0207
     16 C         140.5147  141.5859  166.3218 C.ar    1  UNL1        0.0038
     17 C         140.1869  140.3396  165.5542 C.ar    1  UNL1        0.0285
     18 N         138.3402  139.6115  168.9908 N.1     1  UNL1       -0.1908
     19 C         138.8465  139.4387  167.5894 C.1     1  UNL1        0.1005
     20 C         143.3570  139.2213  157.2039 C.3     1  UNL1        0.0437
     21 C         143.1625  140.6880  157.4507 C.ar    1  UNL1       -0.0206
     22 C         142.2339  141.4787  156.5774 C.ar    1  UNL1       -0.0011
     23 C         142.0393  142.9454  156.8242 C.ar    1  UNL1        0.0366
     24 C         142.7733  143.6214  157.9442 C.ar    1  UNL1        0.1385
     25 C         143.7018  142.8307  158.8174 C.ar    1  UNL1        0.0366
     26 C         143.8964  141.3640  158.5706 C.ar    1  UNL1       -0.0011
     27 O         142.5787  145.0881  158.1909 O.3     1  UNL1       -0.4754
     28 C         141.2337  145.6070  158.6053 C.3     1  UNL1        0.2068
     29 C         140.3878  144.8190  159.5612 C.3     1  UNL1        0.0646
     30 C         140.2980  145.2331  161.0000 C.3     1  UNL1        0.0759
     31 N         139.4697  144.4324  161.9606 N.3     1  UNL1       -0.2726
     32 C         139.2536  145.0538  163.3087 C.3     1  UNL1        0.0721
     33 C         138.4815  144.5124  164.4751 C.3     1  UNL1        0.0173
     34 C         137.7346  143.2159  164.5817 C.3     1  UNL1        0.0015
     35 C         137.5756  142.1405  163.5482 C.3     1  UNL1        0.0015
     36 C         138.1240  142.0962  162.1527 C.3     1  UNL1        0.0173
     37 C         138.9670  143.1161  161.4462 C.3     1  UNL1        0.0721
@<TRIPOS>BOND
     1    18    19    3
     2    19     8    1
     3     8     9   ar
     4     9    10   ar
     5    10    11   ar
     6    11     2    1
     7     2     3    1
     8     3     4    1
     9     4     5    1
    10     5     1    1
    11     1    20    1
    12    20    21    1
    13    21    22   ar
    14    22    23   ar
    15    23    24   ar
    16    24    27    1
    17    27    28    1
    18    28    29    1
    19    29    30    1
    20    30    31    1
    21    31    32    1
    22    32    33    1
    23    33    34    1
    24    34    35    1
    25    35    36    1
    26    36    37    1
    27    24    25   ar
    28    25    26   ar
    29     5     6    1
    30     6     7    1
    31    11    12   ar
    32    12    13   ar
    33    13    14   ar
    34    14    15   ar
    35    15    16   ar
    36    16    17   ar
    37    17     8   ar
    38     7     2    1
    39    17    12   ar
    40    26    21   ar
    41    37    31    1
@<TRIPOS>MOLECULE
*****
 37 41 0 0 0
SMALL
GASTEIGER

@<TRIPOS>ATOM
      1 C         144.0801  138.0373  160.9815 C.3     1  UNL1        0.0769
      2 N         142.8286  139.5150  165.0436 N.pl3   1  UNL1       -0.3035
      3 C         142.0268  138.4525  164.3522 C.3     1  UNL1        0.1082
      4 C         142.4440  137.9599  162.9982 C.3     1  UNL1        0.0938
      5 N         143.6630  138.5299  162.3355 N.3     1  UNL1       -0.2695
      6 C         144.4648  139.5925  163.0269 C.3     1  UNL1        0.0938
      7 C         144.0477  140.0851  164.3809 C.3     1  UNL1        0.1082
      8 C         141.5771  140.9927  169.1056 C.ar    1  UNL1        0.0700
      9 C         142.4415  139.7728  168.9848 C.ar    1  UNL1        0.0116
     10 C         142.8587  139.2802  167.6308 C.ar    1  UNL1        0.0167
     11 C         142.4115  140.0076  166.3976 C.ar    1  UNL1        0.0658
     12 C         141.5471  141.2276  166.5183 C.ar    1  UNL1        0.0952
     13 N         141.0999  141.9549  165.2851 N.ar    1  UNL1       -0.2426
     14 C         140.2355  143.1749  165.4059 C.ar    1  UNL1        0.0989
     15 C         139.8184  143.6674  166.7599 C.ar    1  UNL1        0.0207
     16 C         140.2655  142.9401  167.9931 C.ar    1  UNL1        0.0038
     17 C         141.1299  141.7202  167.8723 C.ar    1  UNL1        0.0285
     18 N         140.7428  141.9779  171.8136 N.1     1  UNL1       -0.1908
     19 C         141.1600  141.4853  170.4596 C.1     1  UNL1        0.1005
     20 C         143.0979  138.0379  159.8478 C.3     1  UNL1        0.0437
     21 C         142.0652  139.1214  159.7508 C.ar    1  UNL1       -0.0206
     22 C         142.4780  140.5609  159.8372 C.ar    1  UNL1       -0.0011
     23 C         141.4453  141.6445  159.7402 C.ar    1  UNL1        0.0366
     24 C         139.9997  141.2884  159.5567 C.ar    1  UNL1        0.1385
     25 C         139.5869  139.8490  159.4703 C.ar    1  UNL1        0.0366
     26 C         140.6197  138.7655  159.5673 C.ar    1  UNL1       -0.0011
     27 O         138.9669  142.3719  159.4596 O.3     1  UNL1       -0.4754
     28 C         138.2462  142.8337  160.6916 C.3     1  UNL1        0.2068
     29 C         138.6640  142.3256  162.0396 C.3     1  UNL1        0.0646
     30 C         137.6596  141.6643  162.9362 C.3     1  UNL1        0.0759
     31 N         137.9936  140.3646  163.6065 N.3     1  UNL1       -0.2726
     32 C         138.0117  140.3916  165.1062 C.3     1  UNL1        0.0721
     33 C         138.3060  139.2705  166.0582 C.3     1  UNL1        0.0173
     34 C         138.6549  137.8454  165.7458 C.3     1  UNL1        0.0015
     35 C         138.7956  137.1896  164.4042 C.3     1  UNL1        0.0015
     36 C         138.6223  137.7969  163.0436 C.3     1  UNL1        0.0173
     37 C         138.2653  139.2099  162.6886 C.3     1  UNL1        0.0721
@<TRIPOS>BOND
     1    18    19    3
     2    19     8    1
     3     8     9   ar
     4     9    10   ar
     5    10    11   ar
     6    11     2    1
     7     2     3    1
     8     3     4    1
     9     4     5    1
    10     5     1    1
    11     1    20    1
    12    20    21    1
    13    21    22   ar
    14    22    23   ar
    15    23    24   ar
    16    24    27    1
    17    27    28    1
    18    28    29    1
    19    29    30    1
    20    30    31    1
    21    31    32    1
    22    32    33    1
    23    33    34    1
    24    34    35    1
    25    35    36    1
    26    36    37    1
    27    24    25   ar
    28    25    26   ar
    29     5     6    1
    30     6     7    1
    31    11    12   ar
    32    12    13   ar
    33    13    14   ar
    34    14    15   ar
    35    15    16   ar
    36    16    17   ar
    37    17     8   ar
    38     7     2    1
    39    17    12   ar
    40    26    21   ar
    41    37    31    1
@<TRIPOS>MOLECULE
*****
 37 41 0 0 0
SMALL
GASTEIGER

@<TRIPOS>ATOM
      1 C         142.7574  138.0809  156.8493 C.3     1  UNL1        0.0769
      2 N         140.8656  138.3282  160.9248 N.pl3   1  UNL1       -0.3035
      3 C         140.0195  138.4754  159.6950 C.3     1  UNL1        0.1082
      4 C         140.6501  138.3930  158.3365 C.3     1  UNL1        0.0938
      5 N         142.1268  138.1633  158.2078 N.3     1  UNL1       -0.2695
      6 C         142.9730  138.0161  159.4376 C.3     1  UNL1        0.0938
      7 C         142.3424  138.0985  160.7961 C.3     1  UNL1        0.1082
      8 C         138.9738  138.5755  165.0003 C.ar    1  UNL1        0.0700
      9 C         139.9406  137.4720  164.6880 C.ar    1  UNL1        0.0116
     10 C         140.5712  137.3896  163.3294 C.ar    1  UNL1        0.0167
     11 C         140.2350  138.4106  162.2833 C.ar    1  UNL1        0.0658
     12 C         139.2682  139.5142  162.5957 C.ar    1  UNL1        0.0952
     13 N         138.9320  140.5352  161.5496 N.ar    1  UNL1       -0.2426
     14 C         137.9652  141.6387  161.8620 C.ar    1  UNL1        0.0989
     15 C         137.3346  141.7211  163.2205 C.ar    1  UNL1        0.0207
     16 C         137.6708  140.7001  164.2666 C.ar    1  UNL1        0.0038
     17 C         138.6376  139.5966  163.9542 C.ar    1  UNL1        0.0285
     18 N         137.7126  138.7403  167.7174 N.1     1  UNL1       -0.1908
     19 C         138.3432  138.6579  166.3589 C.1     1  UNL1        0.1005
     20 C         143.5632  139.2325  156.3254 C.3     1  UNL1        0.0437
     21 C         143.3428  140.6121  156.8713 C.ar    1  UNL1       -0.0206
     22 C         144.3871  141.2514  157.7378 C.ar    1  UNL1       -0.0011
     23 C         144.1667  142.6310  158.2838 C.ar    1  UNL1        0.0366
     24 C         142.9020  143.3713  157.9633 C.ar    1  UNL1        0.1385
     25 C         141.8578  142.7319  157.0969 C.ar    1  UNL1        0.0366
     26 C         142.0782  141.3523  156.5509 C.ar    1  UNL1       -0.0011
     27 O         142.6816  144.7509  158.5093 O.3     1  UNL1       -0.4754
     28 C         141.3465  145.1271  159.0803 C.3     1  UNL1        0.2068
     29 C         141.1155  145.0513  160.5604 C.3     1  UNL1        0.0646
     30 C         141.0597  143.7170  161.2435 C.3     1  UNL1        0.0759
     31 N         140.6610  143.6294  162.6869 N.3     1  UNL1       -0.2726
     32 C         141.3102  142.5311  163.4758 C.3     1  UNL1        0.0721
     33 C         141.1246  142.1839  164.9232 C.3     1  UNL1        0.0173
     34 C         140.2440  142.8491  165.9392 C.3     1  UNL1        0.0015
     35 C         139.3316  144.0259  165.7586 C.3     1  UNL1        0.0015
     36 C         139.0744  144.8281  164.5175 C.3     1  UNL1        0.0173
     37 C         139.6661  144.6516  163.1504 C.3     1  UNL1        0.0721
@<TRIPOS>BOND
     1    18    19    3
     2    19     8    1
     3     8     9   ar
     4     9    10   ar
     5    10    11   ar
     6    11     2    1
     7     2     3    1
     8     3     4    1
     9     4     5    1
    10     5     1    1
    11     1    20    1
    12    20    21    1
    13    21    22   ar
    14    22    23   ar
    15    23    24   ar
    16    24    27    1
    17    27    28    1
    18    28    29    1
    19    29    30    1
    20    30    31    1
    21    31    32    1
    22    32    33    1
    23    33    34    1
    24    34    35    1
    25    35    36    1
    26    36    37    1
    27    24    25   ar
    28    25    26   ar
    29     5     6    1
    30     6     7    1
    31    11    12   ar
    32    12    13   ar
    33    13    14   ar
    34    14    15   ar
    35    15    16   ar
    36    16    17   ar
    37    17     8   ar
    38     7     2    1
    39    17    12   ar
    40    26    21   ar
    41    37    31    1
@<TRIPOS>MOLECULE
*****
 37 41 0 0 0
SMALL
GASTEIGER

@<TRIPOS>ATOM
      1 C         141.0927  145.3105  159.8136 C.3     1  UNL1        0.0769
      2 N         141.8137  143.3133  163.7811 N.pl3   1  UNL1       -0.3035
      3 C         140.6660  144.2651  163.6182 C.3     1  UNL1        0.1082
      4 C         140.4257  144.9309  162.2957 C.3     1  UNL1        0.0938
      5 N         141.3331  144.6447  161.1361 N.3     1  UNL1       -0.2695
      6 C         142.4809  143.6928  161.2990 C.3     1  UNL1        0.0938
      7 C         142.7212  143.0271  162.6215 C.3     1  UNL1        0.1082
      8 C         142.5348  141.3161  167.7486 C.ar    1  UNL1        0.0700
      9 C         143.5141  142.3262  167.2285 C.ar    1  UNL1        0.0116
     10 C         143.2737  142.9919  165.9060 C.ar    1  UNL1        0.0167
     11 C         142.0541  142.6475  165.1036 C.ar    1  UNL1        0.0658
     12 C         141.0747  141.6374  165.6237 C.ar    1  UNL1        0.0952
     13 N         139.8551  141.2930  164.8214 N.ar    1  UNL1       -0.2426
     14 C         138.8758  140.2829  165.3415 C.ar    1  UNL1        0.0989
     15 C         139.1161  139.6171  166.6640 C.ar    1  UNL1        0.0207
     16 C         140.3357  139.9615  167.4664 C.ar    1  UNL1        0.0038
     17 C         141.3150  140.9716  166.9463 C.ar    1  UNL1        0.0285
     18 N         143.0154  139.9846  170.3937 N.1     1  UNL1       -0.1908
     19 C         142.7751  140.6503  169.0712 C.1     1  UNL1        0.1005
     20 C         140.4526  144.5448  158.6938 C.3     1  UNL1        0.0437
     21 C         140.1133  143.0949  158.8745 C.ar    1  UNL1       -0.0206
     22 C         141.0672  142.0371  158.4040 C.ar    1  UNL1       -0.0011
     23 C         140.7280  140.5872  158.5847 C.ar    1  UNL1        0.0366
     24 C         139.4348  140.1951  159.2359 C.ar    1  UNL1        0.1385
     25 C         138.4810  141.2528  159.7064 C.ar    1  UNL1        0.0366
     26 C         138.8203  142.7027  159.5257 C.ar    1  UNL1       -0.0011
     27 O         139.0955  138.7451  159.4166 O.3     1  UNL1       -0.4754
     28 C         138.9151  138.1833  160.7958 C.3     1  UNL1        0.2068
     29 C         139.7830  138.6639  161.9208 C.3     1  UNL1        0.0646
     30 C         140.6729  137.6989  162.6465 C.3     1  UNL1        0.0759
     31 N         141.8965  138.1961  163.3575 N.3     1  UNL1       -0.2726
     32 C         142.8617  138.9817  162.5201 C.3     1  UNL1        0.0721
     33 C         144.1619  139.6072  162.9303 C.3     1  UNL1        0.0173
     34 C         144.8180  139.6017  164.2792 C.3     1  UNL1        0.0015
     35 C         144.3360  138.9692  165.5511 C.3     1  UNL1        0.0015
     36 C         143.0787  138.1861  165.7881 C.3     1  UNL1        0.0173
     37 C         141.9931  137.8420  164.8118 C.3     1  UNL1        0.0721
@<TRIPOS>BOND
     1    18    19    3
     2    19     8    1
     3     8     9   ar
     4     9    10   ar
     5    10    11   ar
     6    11     2    1
     7     2     3    1
     8     3     4    1
     9     4     5    1
    10     5     1    1
    11     1    20    1
    12    20    21    1
    13    21    22   ar
    14    22    23   ar
    15    23    24   ar
    16    24    27    1
    17    27    28    1
    18    28    29    1
    19    29    30    1
    20    30    31    1
    21    31    32    1
    22    32    33    1
    23    33    34    1
    24    34    35    1
    25    35    36    1
    26    36    37    1
    27    24    25   ar
    28    25    26   ar
    29     5     6    1
    30     6     7    1
    31    11    12   ar
    32    12    13   ar
    33    13    14   ar
    34    14    15   ar
    35    15    16   ar
    36    16    17   ar
    37    17     8   ar
    38     7     2    1
    39    17    12   ar
    40    26    21   ar
    41    37    31    1
@<TRIPOS>MOLECULE
*****
 37 41 0 0 0
SMALL
GASTEIGER

@<TRIPOS>ATOM
      1 C         137.8918  144.3844  163.3717 C.3     1  UNL1        0.0769
      2 N         140.2466  144.3937  159.5370 N.pl3   1  UNL1       -0.3035
      3 C         140.3442  145.5562  160.4799 C.3     1  UNL1        0.1082
      4 C         139.5593  145.5531  161.7581 C.3     1  UNL1        0.0938
      5 N         138.6767  144.3875  162.0934 N.3     1  UNL1       -0.2695
      6 C         138.5790  143.2250  161.1505 C.3     1  UNL1        0.0938
      7 C         139.3640  143.2280  159.8723 C.3     1  UNL1        0.1082
      8 C         142.6013  144.4030  155.7022 C.ar    1  UNL1        0.0700
      9 C         142.9589  143.4450  156.7996 C.ar    1  UNL1        0.0116
     10 C         142.1740  143.4419  158.0779 C.ar    1  UNL1        0.0167
     11 C         141.0315  144.3968  158.2587 C.ar    1  UNL1        0.0658
     12 C         140.6738  145.3549  157.1613 C.ar    1  UNL1        0.0952
     13 N         139.5313  146.3098  157.3422 N.ar    1  UNL1       -0.2426
     14 C         139.1737  147.2678  156.2448 C.ar    1  UNL1        0.0989
     15 C         139.9587  147.2709  154.9666 C.ar    1  UNL1        0.0207
     16 C         141.1012  146.3160  154.7857 C.ar    1  UNL1        0.0038
     17 C         141.4587  145.3580  155.8831 C.ar    1  UNL1        0.0285
     18 N         144.1711  144.4092  153.1458 N.1     1  UNL1       -0.1908
     19 C         143.3862  144.4061  154.4240 C.1     1  UNL1        0.1005
     20 C         138.6036  144.2903  164.6887 C.3     1  UNL1        0.0437
     21 C         139.2670  143.0070  165.0926 C.ar    1  UNL1       -0.0206
     22 C         140.4836  143.0353  165.9696 C.ar    1  UNL1       -0.0011
     23 C         141.1470  141.7521  166.3736 C.ar    1  UNL1        0.0366
     24 C         140.5937  140.4405  165.9005 C.ar    1  UNL1        0.1385
     25 C         139.3772  140.4122  165.0235 C.ar    1  UNL1        0.0366
     26 C         138.7138  141.6955  164.6196 C.ar    1  UNL1       -0.0011
     27 O         141.2571  139.1572  166.3045 O.3     1  UNL1       -0.4754
     28 C         142.0626  138.3821  165.3042 C.3     1  UNL1        0.2068
     29 C         143.4605  138.8125  164.9717 C.3     1  UNL1        0.0646
     30 C         143.7224  139.6201  163.7351 C.3     1  UNL1        0.0759
     31 N         143.5473  141.1096  163.7609 N.3     1  UNL1       -0.2726
     32 C         142.5093  141.6592  162.8278 C.3     1  UNL1        0.0721
     33 C         142.1011  143.0875  162.6199 C.3     1  UNL1        0.0173
     34 C         142.6298  144.3190  163.2936 C.3     1  UNL1        0.0015
     35 C         143.6975  144.4263  164.3417 C.3     1  UNL1        0.0015
     36 C         144.5001  143.3286  164.9749 C.3     1  UNL1        0.0173
     37 C         144.4332  141.8526  164.7164 C.3     1  UNL1        0.0721
@<TRIPOS>BOND
     1    18    19    3
     2    19     8    1
     3     8     9   ar
     4     9    10   ar
     5    10    11   ar
     6    11     2    1
     7     2     3    1
     8     3     4    1
     9     4     5    1
    10     5     1    1
    11     1    20    1
    12    20    21    1
    13    21    22   ar
    14    22    23   ar
    15    23    24   ar
    16    24    27    1
    17    27    28    1
    18    28    29    1
    19    29    30    1
    20    30    31    1
    21    31    32    1
    22    32    33    1
    23    33    34    1
    24    34    35    1
    25    35    36    1
    26    36    37    1
    27    24    25   ar
    28    25    26   ar
    29     5     6    1
    30     6     7    1
    31    11    12   ar
    32    12    13   ar
    33    13    14   ar
    34    14    15   ar
    35    15    16   ar
    36    16    17   ar
    37    17     8   ar
    38     7     2    1
    39    17    12   ar
    40    26    21   ar
    41    37    31    1
