@<TRIPOS>MOLECULE
*****
 45 48 0 0 0
SMALL
GASTEIGER

@<TRIPOS>ATOM
      1 C         139.5110  144.5504  161.7196 C.3     1  UNL1        0.0412
      2 C         140.4895  145.3716  160.9335 C.3     1  UNL1        0.0249
      3 C         140.7041  144.6969  159.6111 C.3     1  UNL1        0.0935
      4 N         139.8582  143.4586  159.5799 N.am    1  UNL1       -0.2795
      5 C         139.7659  142.4822  158.4449 C.2     1  UNL1        0.2256
      6 O         140.5671  142.7053  157.1967 O.2     1  UNL1       -0.2749
      7 C         139.1209  143.3680  160.8830 C.3     1  UNL1        0.0951
      8 C         139.0106  144.8575  163.0999 C.3     1  UNL1        0.0914
      9 C         140.6645  143.7354  164.7598 C.2     1  UNL1        0.2458
     10 O         141.7930  144.5300  164.1726 O.2     1  UNL1       -0.2701
     11 N         139.2733  143.8991  164.2234 N.am    1  UNL1       -0.3008
     12 H         138.5326  143.3775  164.6089 H       1  UNL1        0.1497
     13 C         140.5968  142.0702  168.3616 C.ar    1  UNL1       -0.0230
     14 C         140.3342  143.0286  167.2380 C.ar    1  UNL1        0.0002
     15 C         140.9272  142.7769  165.8834 C.ar    1  UNL1        0.0527
     16 C         141.7829  141.5668  165.6523 C.ar    1  UNL1        0.0002
     17 C         142.0455  140.6084  166.7759 C.ar    1  UNL1       -0.0230
     18 C         141.4525  140.8601  168.1305 C.ar    1  UNL1       -0.0086
     19 C         139.5811  140.8851  169.7981 C.3     1  UNL1        0.0044
     20 C         140.0038  142.3219  169.7162 C.3     1  UNL1        0.0189
     21 C         140.4265  143.7588  169.6342 C.3     1  UNL1        0.0044
     22 C         139.4108  142.5737  171.0708 C.3     1  UNL1        0.0044
     23 C         142.9012  139.3982  166.5449 C.3     1  UNL1        0.0189
     24 C         143.0657  139.7891  165.1061 C.3     1  UNL1        0.0044
     25 C         142.7367  139.0073  167.9837 C.3     1  UNL1        0.0044
     26 C         143.7569  138.1881  166.3140 C.3     1  UNL1        0.0044
     27 C         138.8723  141.2828  158.5582 C.3     1  UNL1        0.0853
     28 C         139.4511  139.9483  158.9241 C.3     1  UNL1        0.0096
     29 C         138.8168  139.1272  160.0074 C.3     1  UNL1        0.0012
     30 C         139.6769  138.3840  160.9863 C.3     1  UNL1        0.0087
     31 C         140.3330  139.1192  162.1173 C.3     1  UNL1        0.0446
     32 C         139.7262  139.0814  163.4885 C.ar    1  UNL1       -0.0183
     33 C         138.8698  140.2185  163.9612 C.ar    1  UNL1       -0.0017
     34 C         138.2629  140.1808  165.3325 C.ar    1  UNL1        0.0293
     35 C         138.5125  139.0059  166.2309 C.ar    1  UNL1        0.1401
     36 F         137.9056  138.9681  167.6022 F       1  UNL1       -0.2042
     37 C         139.3689  137.8687  165.7582 C.ar    1  UNL1        0.0293
     38 C         139.9757  137.9064  164.3869 C.ar    1  UNL1       -0.0017
     39 C         141.5959  139.8921  161.8769 C.ar    1  UNL1       -0.0183
     40 C         141.5910  141.3884  161.9824 C.ar    1  UNL1       -0.0017
     41 C         142.8539  142.1613  161.7421 C.ar    1  UNL1        0.0293
     42 C         144.1216  141.4379  161.3963 C.ar    1  UNL1        0.1401
     43 F         145.3845  142.2108  161.1559 F       1  UNL1       -0.2042
     44 C         144.1265  139.9417  161.2908 C.ar    1  UNL1        0.0293
     45 C         142.8636  139.1687  161.5311 C.ar    1  UNL1       -0.0017
@<TRIPOS>BOND
     1    19    20    1
     2    20    21    1
     3    20    22    1
     4    20    13    1
     5    13    14   ar
     6    14    15   ar
     7    15     9    1
     8     9    10    2
     9     9    11   am
    10    11     8    1
    11     8     1    1
    12     1     2    1
    13     2     3    1
    14     3     4    1
    15     4     5   am
    16     5     6    2
    17     5    27    1
    18    27    28    1
    19    28    29    1
    20    29    30    1
    21    30    31    1
    22    31    32    1
    23    32    33   ar
    24    33    34   ar
    25    34    35   ar
    26    35    36    1
    27    35    37   ar
    28    37    38   ar
    29    31    39    1
    30    39    40   ar
    31    40    41   ar
    32    41    42   ar
    33    42    43    1
    34    42    44   ar
    35    44    45   ar
    36     4     7    1
    37    15    16   ar
    38    16    17   ar
    39    17    23    1
    40    23    24    1
    41    23    25    1
    42    23    26    1
    43    17    18   ar
    44    18    13   ar
    45     7     1    1
    46    38    32   ar
    47    45    39   ar
    48    11    12    1
@<TRIPOS>MOLECULE
*****
 45 48 0 0 0
SMALL
GASTEIGER

@<TRIPOS>ATOM
      1 C         139.5099  144.3685  161.7008 C.3     1  UNL1        0.0412
      2 C         140.5726  144.9864  160.8412 C.3     1  UNL1        0.0249
      3 C         140.5902  144.2577  159.5302 C.3     1  UNL1        0.0935
      4 N         139.5383  143.1894  159.5796 N.am    1  UNL1       -0.2795
      5 C         139.2114  142.2224  158.4805 C.2     1  UNL1        0.2256
      6 O         139.9683  142.2741  157.1865 O.2     1  UNL1       -0.2749
      7 C         138.8707  143.2579  160.9211 C.3     1  UNL1        0.0951
      8 C         139.1497  144.7876  163.0953 C.3     1  UNL1        0.0914
      9 C         140.7506  143.6431  164.7915 C.2     1  UNL1        0.2458
     10 O         141.9115  144.3819  164.1945 O.2     1  UNL1       -0.2701
     11 N         139.3697  143.8459  164.2419 N.am    1  UNL1       -0.3008
     12 H         138.6078  143.3610  164.6338 H       1  UNL1        0.1497
     13 C         142.0249  140.5277  166.8940 C.ar    1  UNL1       -0.0230
     14 C         141.8049  141.4694  165.7475 C.ar    1  UNL1        0.0002
     15 C         140.9706  142.7013  165.9382 C.ar    1  UNL1        0.0527
     16 C         140.3563  142.9915  167.2755 C.ar    1  UNL1        0.0002
     17 C         140.5763  142.0497  168.4220 C.ar    1  UNL1       -0.0230
     18 C         141.4105  140.8178  168.2313 C.ar    1  UNL1       -0.0086
     19 C         142.8163  139.0380  168.1804 C.3     1  UNL1        0.0044
     20 C         142.8592  139.2957  166.7033 C.3     1  UNL1        0.0189
     21 C         142.9020  139.5535  165.2263 C.3     1  UNL1        0.0044
     22 C         143.6934  138.0638  166.5126 C.3     1  UNL1        0.0044
     23 C         139.9619  142.3399  169.7594 C.3     1  UNL1        0.0189
     24 C         140.4189  143.7651  169.6602 C.3     1  UNL1        0.0044
     25 C         139.5050  140.9146  169.8587 C.3     1  UNL1        0.0044
     26 C         139.3476  142.6299  171.0967 C.3     1  UNL1        0.0044
     27 C         138.1277  141.2039  158.6753 C.3     1  UNL1        0.0853
     28 C         138.2619  140.1614  159.7454 C.3     1  UNL1        0.0096
     29 C         139.3610  139.1436  159.6674 C.3     1  UNL1        0.0012
     30 C         139.7483  138.3630  160.8884 C.3     1  UNL1        0.0087
     31 C         140.3486  139.0667  162.0693 C.3     1  UNL1        0.0446
     32 C         141.6342  139.8241  161.9170 C.ar    1  UNL1       -0.0183
     33 C         141.6372  141.3216  162.0034 C.ar    1  UNL1       -0.0017
     34 C         142.9229  142.0792  161.8512 C.ar    1  UNL1        0.0293
     35 C         144.2056  141.3392  161.6125 C.ar    1  UNL1        0.1401
     36 F         145.4913  142.0967  161.4602 F       1  UNL1       -0.2042
     37 C         144.2026  139.8416  161.5260 C.ar    1  UNL1        0.0293
     38 C         142.9170  139.0841  161.6783 C.ar    1  UNL1       -0.0017
     39 C         139.6630  139.0129  163.4025 C.ar    1  UNL1       -0.0183
     40 C         139.7241  137.7615  164.2273 C.ar    1  UNL1       -0.0017
     41 C         139.0386  137.7078  165.5604 C.ar    1  UNL1        0.0293
     42 C         138.2920  138.9054  166.0687 C.ar    1  UNL1        0.1401
     43 F         137.6065  138.8517  167.4018 F       1  UNL1       -0.2042
     44 C         138.2310  140.1568  165.2439 C.ar    1  UNL1        0.0293
     45 C         138.9165  140.2106  163.9107 C.ar    1  UNL1       -0.0017
@<TRIPOS>BOND
     1    19    20    1
     2    20    21    1
     3    20    22    1
     4    20    13    1
     5    13    14   ar
     6    14    15   ar
     7    15     9    1
     8     9    10    2
     9     9    11   am
    10    11     8    1
    11     8     1    1
    12     1     2    1
    13     2     3    1
    14     3     4    1
    15     4     5   am
    16     5     6    2
    17     5    27    1
    18    27    28    1
    19    28    29    1
    20    29    30    1
    21    30    31    1
    22    31    32    1
    23    32    33   ar
    24    33    34   ar
    25    34    35   ar
    26    35    36    1
    27    35    37   ar
    28    37    38   ar
    29    31    39    1
    30    39    40   ar
    31    40    41   ar
    32    41    42   ar
    33    42    43    1
    34    42    44   ar
    35    44    45   ar
    36     4     7    1
    37    15    16   ar
    38    16    17   ar
    39    17    23    1
    40    23    24    1
    41    23    25    1
    42    23    26    1
    43    17    18   ar
    44    18    13   ar
    45     7     1    1
    46    38    32   ar
    47    45    39   ar
    48    11    12    1
@<TRIPOS>MOLECULE
*****
 45 48 0 0 0
SMALL
GASTEIGER

@<TRIPOS>ATOM
      1 C         140.3885  145.0242  160.9462 C.3     1  UNL1        0.0412
      2 C         140.9398  145.6780  159.7139 C.3     1  UNL1        0.0249
      3 C         140.4718  144.8936  158.5241 C.3     1  UNL1        0.0935
      4 N         139.6313  143.7550  159.0210 N.am    1  UNL1       -0.2795
      5 C         138.9601  142.7177  158.1704 C.2     1  UNL1        0.2256
      6 O         139.1019  142.7654  156.6779 O.2     1  UNL1       -0.2749
      7 C         139.5799  143.8356  160.5180 C.3     1  UNL1        0.0951
      8 C         140.6075  145.4790  162.3587 C.3     1  UNL1        0.0914
      9 C         140.1419  143.9227  164.3864 C.2     1  UNL1        0.2458
     10 O         138.6926  144.3073  164.3488 O.2     1  UNL1       -0.2701
     11 N         141.0994  144.5086  163.3914 N.am    1  UNL1       -0.3008
     12 H         142.0507  144.2561  163.4161 H       1  UNL1        0.1497
     13 C         142.1419  140.9428  166.0805 C.ar    1  UNL1       -0.0230
     14 C         141.6499  141.9132  165.0479 C.ar    1  UNL1        0.0002
     15 C         140.6338  142.9523  165.4191 C.ar    1  UNL1        0.0527
     16 C         140.1097  143.0210  166.8228 C.ar    1  UNL1        0.0002
     17 C         140.6016  142.0506  167.8554 C.ar    1  UNL1       -0.0230
     18 C         141.6177  141.0115  167.4842 C.ar    1  UNL1       -0.0086
     19 C         142.2693  138.8339  166.2715 C.3     1  UNL1        0.0044
     20 C         143.1580  139.9036  165.7093 C.3     1  UNL1        0.0189
     21 C         144.0466  140.9734  165.1472 C.3     1  UNL1        0.0044
     22 C         144.1741  138.8645  165.3382 C.3     1  UNL1        0.0044
     23 C         140.0774  142.1193  169.2592 C.3     1  UNL1        0.0189
     24 C         140.5403  143.5424  169.3624 C.3     1  UNL1        0.0044
     25 C         139.6146  140.6963  169.1559 C.3     1  UNL1        0.0044
     26 C         139.5533  142.1880  170.6629 C.3     1  UNL1        0.0044
     27 C         138.1471  141.6329  158.8122 C.3     1  UNL1        0.0853
     28 C         138.7444  140.2732  159.0233 C.3     1  UNL1        0.0096
     29 C         138.2716  139.4144  160.1586 C.3     1  UNL1        0.0012
     30 C         139.2456  138.5457  160.8981 C.3     1  UNL1        0.0087
     31 C         139.9810  139.0879  162.0877 C.3     1  UNL1        0.0446
     32 C         139.3855  138.9622  163.4587 C.ar    1  UNL1       -0.0183
     33 C         138.7392  140.1503  164.1073 C.ar    1  UNL1       -0.0017
     34 C         138.1436  140.0248  165.4783 C.ar    1  UNL1        0.0293
     35 C         138.1945  138.7111  166.2006 C.ar    1  UNL1        0.1401
     36 F         137.5990  138.5855  167.5717 F       1  UNL1       -0.2042
     37 C         138.8409  137.5231  165.5520 C.ar    1  UNL1        0.0293
     38 C         139.4364  137.6486  164.1810 C.ar    1  UNL1       -0.0017
     39 C         141.3119  139.7557  161.9063 C.ar    1  UNL1       -0.0183
     40 C         141.3826  141.2352  161.6696 C.ar    1  UNL1       -0.0017
     41 C         142.7135  141.9029  161.4882 C.ar    1  UNL1        0.0293
     42 C         143.9736  141.0912  161.5435 C.ar    1  UNL1        0.1401
     43 F         145.3045  141.7589  161.3621 F       1  UNL1       -0.2042
     44 C         143.9029  139.6117  161.7802 C.ar    1  UNL1        0.0293
     45 C         142.5720  138.9438  161.9617 C.ar    1  UNL1       -0.0017
@<TRIPOS>BOND
     1    19    20    1
     2    20    21    1
     3    20    22    1
     4    20    13    1
     5    13    14   ar
     6    14    15   ar
     7    15     9    1
     8     9    10    2
     9     9    11   am
    10    11     8    1
    11     8     1    1
    12     1     2    1
    13     2     3    1
    14     3     4    1
    15     4     5   am
    16     5     6    2
    17     5    27    1
    18    27    28    1
    19    28    29    1
    20    29    30    1
    21    30    31    1
    22    31    32    1
    23    32    33   ar
    24    33    34   ar
    25    34    35   ar
    26    35    36    1
    27    35    37   ar
    28    37    38   ar
    29    31    39    1
    30    39    40   ar
    31    40    41   ar
    32    41    42   ar
    33    42    43    1
    34    42    44   ar
    35    44    45   ar
    36     4     7    1
    37    15    16   ar
    38    16    17   ar
    39    17    23    1
    40    23    24    1
    41    23    25    1
    42    23    26    1
    43    17    18   ar
    44    18    13   ar
    45     7     1    1
    46    38    32   ar
    47    45    39   ar
    48    11    12    1
@<TRIPOS>MOLECULE
*****
 45 48 0 0 0
SMALL
GASTEIGER

@<TRIPOS>ATOM
      1 C         140.2609  144.5331  161.3550 C.3     1  UNL1        0.0412
      2 C         140.0265  144.9457  159.9320 C.3     1  UNL1        0.0249
      3 C         141.1767  144.4459  159.1090 C.3     1  UNL1        0.0935
      4 N         142.1219  143.7244  160.0233 N.am    1  UNL1       -0.2795
      5 C         143.4074  143.0648  159.6203 C.2     1  UNL1        0.2256
      6 O         143.8471  143.0923  158.1865 O.2     1  UNL1       -0.2749
      7 C         141.5559  143.7783  161.4114 C.3     1  UNL1        0.0951
      8 C         139.3587  144.8242  162.5175 C.3     1  UNL1        0.0914
      9 C         140.1076  143.5583  164.6591 C.2     1  UNL1        0.2458
     10 O         141.3495  144.3971  164.7207 O.2     1  UNL1       -0.2701
     11 N         139.1122  143.7718  163.5574 N.am    1  UNL1       -0.3008
     12 H         138.2970  143.2212  163.5170 H       1  UNL1        0.1497
     13 C         139.2200  140.0669  166.3241 C.ar    1  UNL1       -0.0230
     14 C         139.4666  141.1193  165.2842 C.ar    1  UNL1        0.0002
     15 C         139.8610  142.5058  165.6991 C.ar    1  UNL1        0.0527
     16 C         140.0088  142.8398  167.1539 C.ar    1  UNL1        0.0002
     17 C         139.7623  141.7873  168.1938 C.ar    1  UNL1       -0.0230
     18 C         139.3678  140.4009  167.7789 C.ar    1  UNL1       -0.0086
     19 C         137.7667  138.6637  166.9716 C.3     1  UNL1        0.0044
     20 C         138.8255  138.6804  165.9092 C.3     1  UNL1        0.0189
     21 C         139.8843  138.6971  164.8468 C.3     1  UNL1        0.0044
     22 C         138.4311  137.2939  165.4943 C.3     1  UNL1        0.0044
     23 C         139.9101  142.1213  169.6487 C.3     1  UNL1        0.0189
     24 C         140.3844  143.4970  169.2848 C.3     1  UNL1        0.0044
     25 C         139.4358  140.7456  170.0127 C.3     1  UNL1        0.0044
     26 C         140.0579  142.4552  171.1035 C.3     1  UNL1        0.0044
     27 C         144.2531  142.3777  160.6510 C.3     1  UNL1        0.0853
     28 C         144.8742  143.1714  161.7619 C.3     1  UNL1        0.0096
     29 C         145.1861  142.5110  163.0721 C.3     1  UNL1        0.0012
     30 C         144.2127  142.6044  164.2097 C.3     1  UNL1        0.0087
     31 C         143.4557  141.3869  164.6509 C.3     1  UNL1        0.0446
     32 C         142.8760  140.4534  163.6299 C.ar    1  UNL1       -0.0183
     33 C         141.7552  140.9123  162.7449 C.ar    1  UNL1       -0.0017
     34 C         141.1755  139.9788  161.7238 C.ar    1  UNL1        0.0293
     35 C         141.7166  138.5865  161.5878 C.ar    1  UNL1        0.1401
     36 F         141.1369  137.6529  160.5668 F       1  UNL1       -0.2042
     37 C         142.8374  138.1276  162.4728 C.ar    1  UNL1        0.0293
     38 C         143.4171  139.0611  163.4939 C.ar    1  UNL1       -0.0017
     39 C         143.2784  141.1030  166.1131 C.ar    1  UNL1       -0.0183
     40 C         143.5070  142.1899  167.1213 C.ar    1  UNL1       -0.0017
     41 C         143.3297  141.9060  168.5834 C.ar    1  UNL1        0.0293
     42 C         142.9237  140.5352  169.0374 C.ar    1  UNL1        0.1401
     43 F         142.7464  140.2513  170.4996 F       1  UNL1       -0.2042
     44 C         142.6951  139.4483  168.0293 C.ar    1  UNL1        0.0293
     45 C         142.8725  139.7322  166.5670 C.ar    1  UNL1       -0.0017
@<TRIPOS>BOND
     1    19    20    1
     2    20    21    1
     3    20    22    1
     4    20    13    1
     5    13    14   ar
     6    14    15   ar
     7    15     9    1
     8     9    10    2
     9     9    11   am
    10    11     8    1
    11     8     1    1
    12     1     2    1
    13     2     3    1
    14     3     4    1
    15     4     5   am
    16     5     6    2
    17     5    27    1
    18    27    28    1
    19    28    29    1
    20    29    30    1
    21    30    31    1
    22    31    32    1
    23    32    33   ar
    24    33    34   ar
    25    34    35   ar
    26    35    36    1
    27    35    37   ar
    28    37    38   ar
    29    31    39    1
    30    39    40   ar
    31    40    41   ar
    32    41    42   ar
    33    42    43    1
    34    42    44   ar
    35    44    45   ar
    36     4     7    1
    37    15    16   ar
    38    16    17   ar
    39    17    23    1
    40    23    24    1
    41    23    25    1
    42    23    26    1
    43    17    18   ar
    44    18    13   ar
    45     7     1    1
    46    38    32   ar
    47    45    39   ar
    48    11    12    1
@<TRIPOS>MOLECULE
*****
 45 48 0 0 0
SMALL
GASTEIGER

@<TRIPOS>ATOM
      1 C         141.3147  144.7669  162.0433 C.3     1  UNL1        0.0412
      2 C         140.4217  145.1333  160.8951 C.3     1  UNL1        0.0249
      3 C         141.0177  144.5610  159.6433 C.3     1  UNL1        0.0935
      4 N         142.2792  143.8409  160.0178 N.am    1  UNL1       -0.2795
      5 C         143.1961  143.1200  159.0746 C.2     1  UNL1        0.2256
      6 O         142.8812  143.0769  157.6087 O.2     1  UNL1       -0.2749
      7 C         142.4627  143.9682  161.5010 C.3     1  UNL1        0.0951
      8 C         141.0977  145.1348  163.4812 C.3     1  UNL1        0.0914
      9 C         139.7225  143.3338  164.7522 C.2     1  UNL1        0.2458
     10 O         138.5136  143.6797  163.9343 O.2     1  UNL1       -0.2701
     11 N         141.0146  144.0614  164.5256 N.am    1  UNL1       -0.3008
     12 H         141.8080  143.8343  165.0625 H       1  UNL1        0.1497
     13 C         139.0202  139.8324  166.4833 C.ar    1  UNL1       -0.0230
     14 C         139.1034  140.9058  165.4389 C.ar    1  UNL1        0.0002
     15 C         139.6394  142.2604  165.7966 C.ar    1  UNL1        0.0527
     16 C         140.0922  142.5415  167.1987 C.ar    1  UNL1        0.0002
     17 C         140.0090  141.4680  168.2431 C.ar    1  UNL1       -0.0230
     18 C         139.4730  140.1135  167.8854 C.ar    1  UNL1       -0.0086
     19 C         137.6475  138.4802  167.3705 C.3     1  UNL1        0.0044
     20 C         138.4843  138.4779  166.1256 C.3     1  UNL1        0.0189
     21 C         139.3210  138.4756  164.8806 C.3     1  UNL1        0.0044
     22 C         137.9483  137.1233  165.7679 C.3     1  UNL1        0.0044
     23 C         140.4618  141.7491  169.6453 C.3     1  UNL1        0.0189
     24 C         140.5448  143.2122  169.3252 C.3     1  UNL1        0.0044
     25 C         140.3788  140.2860  169.9653 C.3     1  UNL1        0.0044
     26 C         140.9146  142.0301  171.0474 C.3     1  UNL1        0.0044
     27 C         144.4279  142.4424  159.5973 C.3     1  UNL1        0.0853
     28 C         144.3348  141.5266  160.7816 C.3     1  UNL1        0.0096
     29 C         143.9951  140.0788  160.5854 C.3     1  UNL1        0.0012
     30 C         143.6994  139.2102  161.7721 C.3     1  UNL1        0.0087
     31 C         142.5136  139.5068  162.6417 C.3     1  UNL1        0.0446
     32 C         141.1395  139.5617  162.0429 C.ar    1  UNL1       -0.0183
     33 C         140.5038  138.3126  161.5084 C.ar    1  UNL1       -0.0017
     34 C         139.1297  138.3675  160.9095 C.ar    1  UNL1        0.0293
     35 C         138.3912  139.6715  160.8452 C.ar    1  UNL1        0.1401
     36 F         137.0169  139.7265  160.2463 F       1  UNL1       -0.2042
     37 C         139.0269  140.9207  161.3797 C.ar    1  UNL1        0.0293
     38 C         140.4010  140.8658  161.9785 C.ar    1  UNL1       -0.0017
     39 C         142.7022  139.7484  164.1101 C.ar    1  UNL1       -0.0183
     40 C         142.9823  141.1338  164.6124 C.ar    1  UNL1       -0.0017
     41 C         143.1708  141.3753  166.0807 C.ar    1  UNL1        0.0293
     42 C         143.0793  140.2315  167.0468 C.ar    1  UNL1        0.1401
     43 F         143.2678  140.4730  168.5152 F       1  UNL1       -0.2042
     44 C         142.7992  138.8461  166.5446 C.ar    1  UNL1        0.0293
     45 C         142.6106  138.6045  165.0761 C.ar    1  UNL1       -0.0017
@<TRIPOS>BOND
     1    19    20    1
     2    20    21    1
     3    20    22    1
     4    20    13    1
     5    13    14   ar
     6    14    15   ar
     7    15     9    1
     8     9    10    2
     9     9    11   am
    10    11     8    1
    11     8     1    1
    12     1     2    1
    13     2     3    1
    14     3     4    1
    15     4     5   am
    16     5     6    2
    17     5    27    1
    18    27    28    1
    19    28    29    1
    20    29    30    1
    21    30    31    1
    22    31    32    1
    23    32    33   ar
    24    33    34   ar
    25    34    35   ar
    26    35    36    1
    27    35    37   ar
    28    37    38   ar
    29    31    39    1
    30    39    40   ar
    31    40    41   ar
    32    41    42   ar
    33    42    43    1
    34    42    44   ar
    35    44    45   ar
    36     4     7    1
    37    15    16   ar
    38    16    17   ar
    39    17    23    1
    40    23    24    1
    41    23    25    1
    42    23    26    1
    43    17    18   ar
    44    18    13   ar
    45     7     1    1
    46    38    32   ar
    47    45    39   ar
    48    11    12    1
@<TRIPOS>MOLECULE
*****
 45 48 0 0 0
SMALL
GASTEIGER

@<TRIPOS>ATOM
      1 C         141.0263  144.9351  161.3603 C.3     1  UNL1        0.0412
      2 C         140.3481  145.6385  160.2222 C.3     1  UNL1        0.0249
      3 C         140.9850  145.1755  158.9455 C.3     1  UNL1        0.0935
      4 N         142.0569  144.1859  159.2946 N.am    1  UNL1       -0.2795
      5 C         142.9470  143.4705  158.3221 C.2     1  UNL1        0.2256
      6 O         142.8047  143.7219  156.8502 O.2     1  UNL1       -0.2749
      7 C         142.0823  144.0374  160.7870 C.3     1  UNL1        0.0951
      8 C         140.7048  145.1004  162.8161 C.3     1  UNL1        0.0914
      9 C         139.8800  143.8356  164.9303 C.2     1  UNL1        0.2458
     10 O         138.8836  144.9254  165.1936 O.2     1  UNL1       -0.2701
     11 N         140.7906  143.9231  163.7416 N.am    1  UNL1       -0.3008
     12 H         141.4446  143.2078  163.5687 H       1  UNL1        0.1497
     13 C         140.5550  141.6634  168.1824 C.ar    1  UNL1       -0.0230
     14 C         140.4692  142.8407  167.2569 C.ar    1  UNL1        0.0002
     15 C         139.9658  142.6582  165.8558 C.ar    1  UNL1        0.0527
     16 C         139.5483  141.2983  165.3800 C.ar    1  UNL1        0.0002
     17 C         139.6341  140.1210  166.3054 C.ar    1  UNL1       -0.0230
     18 C         140.1375  140.3035  167.7066 C.ar    1  UNL1       -0.0086
     19 C         139.7733  141.2867  170.1181 C.3     1  UNL1        0.0044
     20 C         141.0584  141.8459  169.5835 C.3     1  UNL1        0.0189
     21 C         142.3435  142.4051  169.0490 C.3     1  UNL1        0.0044
     22 C         141.5618  142.0285  170.9847 C.3     1  UNL1        0.0044
     23 C         139.2166  138.7610  165.8297 C.3     1  UNL1        0.0189
     24 C         140.5782  138.5503  165.2369 C.3     1  UNL1        0.0044
     25 C         137.8549  138.9717  166.4226 C.3     1  UNL1        0.0044
     26 C         138.7990  137.4011  165.3540 C.3     1  UNL1        0.0044
     27 C         143.9793  142.5036  158.8214 C.3     1  UNL1        0.0853
     28 C         143.9545  141.0761  158.3614 C.3     1  UNL1        0.0096
     29 C         143.3979  140.0091  159.2569 C.3     1  UNL1        0.0012
     30 C         143.8487  139.9179  160.6847 C.3     1  UNL1        0.0087
     31 C         142.9228  140.3281  161.7912 C.3     1  UNL1        0.0446
     32 C         141.5001  139.8529  161.7935 C.ar    1  UNL1       -0.0183
     33 C         140.3776  140.8463  161.8508 C.ar    1  UNL1       -0.0017
     34 C         138.9549  140.3711  161.8531 C.ar    1  UNL1        0.0293
     35 C         138.6546  138.9025  161.7981 C.ar    1  UNL1        0.1401
     36 F         137.2319  138.4272  161.8005 F       1  UNL1       -0.2042
     37 C         139.7771  137.9091  161.7408 C.ar    1  UNL1        0.0293
     38 C         141.1998  138.3843  161.7385 C.ar    1  UNL1       -0.0017
     39 C         143.4196  141.2137  162.8954 C.ar    1  UNL1       -0.0183
     40 C         144.2897  142.3932  162.5768 C.ar    1  UNL1       -0.0017
     41 C         144.7865  143.2787  163.6809 C.ar    1  UNL1        0.0293
     42 C         144.4131  142.9846  165.1036 C.ar    1  UNL1        0.1401
     43 F         144.9099  143.8701  166.2078 F       1  UNL1       -0.2042
     44 C         143.5430  141.8051  165.4222 C.ar    1  UNL1        0.0293
     45 C         143.0462  140.9195  164.3181 C.ar    1  UNL1       -0.0017
@<TRIPOS>BOND
     1    19    20    1
     2    20    21    1
     3    20    22    1
     4    20    13    1
     5    13    14   ar
     6    14    15   ar
     7    15     9    1
     8     9    10    2
     9     9    11   am
    10    11     8    1
    11     8     1    1
    12     1     2    1
    13     2     3    1
    14     3     4    1
    15     4     5   am
    16     5     6    2
    17     5    27    1
    18    27    28    1
    19    28    29    1
    20    29    30    1
    21    30    31    1
    22    31    32    1
    23    32    33   ar
    24    33    34   ar
    25    34    35   ar
    26    35    36    1
    27    35    37   ar
    28    37    38   ar
    29    31    39    1
    30    39    40   ar
    31    40    41   ar
    32    41    42   ar
    33    42    43    1
    34    42    44   ar
    35    44    45   ar
    36     4     7    1
    37    15    16   ar
    38    16    17   ar
    39    17    23    1
    40    23    24    1
    41    23    25    1
    42    23    26    1
    43    17    18   ar
    44    18    13   ar
    45     7     1    1
    46    38    32   ar
    47    45    39   ar
    48    11    12    1
@<TRIPOS>MOLECULE
*****
 45 48 0 0 0
SMALL
GASTEIGER

@<TRIPOS>ATOM
      1 C         139.5496  144.3791  161.6224 C.3     1  UNL1        0.0412
      2 C         140.6112  144.9926  160.7583 C.3     1  UNL1        0.0249
      3 C         140.6117  144.2722  159.4426 C.3     1  UNL1        0.0935
      4 N         139.5504  143.2134  159.4936 N.am    1  UNL1       -0.2795
      5 C         139.2059  142.2565  158.3911 C.2     1  UNL1        0.2256
      6 O         139.9530  142.3093  157.0915 O.2     1  UNL1       -0.2749
      7 C         138.8940  143.2795  160.8408 C.3     1  UNL1        0.0951
      8 C         139.2043  144.7926  163.0223 C.3     1  UNL1        0.0914
      9 C         140.7893  143.6733  164.7500 C.2     1  UNL1        0.2458
     10 O         141.9428  144.4595  164.2012 O.2     1  UNL1       -0.2701
     11 N         139.4200  143.8399  164.1606 N.am    1  UNL1       -0.3008
     12 H         138.6629  143.3239  164.5208 H       1  UNL1        0.1497
     13 C         140.5966  142.0422  168.3628 C.ar    1  UNL1       -0.0230
     14 C         140.3810  142.9949  167.2245 C.ar    1  UNL1        0.0002
     15 C         141.0049  142.7205  165.8884 C.ar    1  UNL1        0.0527
     16 C         141.8446  141.4934  165.6905 C.ar    1  UNL1        0.0002
     17 C         142.0602  140.5407  166.8288 C.ar    1  UNL1       -0.0230
     18 C         141.4362  140.8151  168.1649 C.ar    1  UNL1       -0.0086
     19 C         139.5379  140.8838  169.7902 C.3     1  UNL1        0.0044
     20 C         139.9726  142.3165  169.6990 C.3     1  UNL1        0.0189
     21 C         140.4073  143.7493  169.6078 C.3     1  UNL1        0.0044
     22 C         139.3486  142.5909  171.0352 C.3     1  UNL1        0.0044
     23 C         142.8999  139.3135  166.6309 C.3     1  UNL1        0.0189
     24 C         143.0032  139.6203  165.1663 C.3     1  UNL1        0.0044
     25 C         142.7965  139.0067  168.0955 C.3     1  UNL1        0.0044
     26 C         143.7395  138.0864  166.4331 C.3     1  UNL1        0.0044
     27 C         138.1144  141.2468  158.5881 C.3     1  UNL1        0.0853
     28 C         138.2091  140.2478  159.7030 C.3     1  UNL1        0.0096
     29 C         139.3243  139.2447  159.7185 C.3     1  UNL1        0.0012
     30 C         139.6212  138.4725  160.9699 C.3     1  UNL1        0.0087
     31 C         140.2983  139.1483  162.1253 C.3     1  UNL1        0.0446
     32 C         141.5900  139.8807  161.9134 C.ar    1  UNL1       -0.0183
     33 C         141.6256  141.3780  161.9975 C.ar    1  UNL1       -0.0017
     34 C         142.9173  142.1105  161.7856 C.ar    1  UNL1        0.0293
     35 C         144.1734  141.3459  161.4898 C.ar    1  UNL1        0.1401
     36 F         145.4652  142.0784  161.2780 F       1  UNL1       -0.2042
     37 C         144.1378  139.8486  161.4058 C.ar    1  UNL1        0.0293
     38 C         142.8461  139.1161  161.6176 C.ar    1  UNL1       -0.0017
     39 C         139.6837  139.0914  163.4924 C.ar    1  UNL1       -0.0183
     40 C         138.8687  140.2452  163.9969 C.ar    1  UNL1       -0.0017
     41 C         138.2542  140.1884  165.3640 C.ar    1  UNL1        0.0293
     42 C         138.4546  138.9777  166.2267 C.ar    1  UNL1        0.1401
     43 F         137.8400  138.9209  167.5938 F       1  UNL1       -0.2042
     44 C         139.2696  137.8239  165.7222 C.ar    1  UNL1        0.0293
     45 C         139.8842  137.8807  164.3550 C.ar    1  UNL1       -0.0017
@<TRIPOS>BOND
     1    19    20    1
     2    20    21    1
     3    20    22    1
     4    20    13    1
     5    13    14   ar
     6    14    15   ar
     7    15     9    1
     8     9    10    2
     9     9    11   am
    10    11     8    1
    11     8     1    1
    12     1     2    1
    13     2     3    1
    14     3     4    1
    15     4     5   am
    16     5     6    2
    17     5    27    1
    18    27    28    1
    19    28    29    1
    20    29    30    1
    21    30    31    1
    22    31    32    1
    23    32    33   ar
    24    33    34   ar
    25    34    35   ar
    26    35    36    1
    27    35    37   ar
    28    37    38   ar
    29    31    39    1
    30    39    40   ar
    31    40    41   ar
    32    41    42   ar
    33    42    43    1
    34    42    44   ar
    35    44    45   ar
    36     4     7    1
    37    15    16   ar
    38    16    17   ar
    39    17    23    1
    40    23    24    1
    41    23    25    1
    42    23    26    1
    43    17    18   ar
    44    18    13   ar
    45     7     1    1
    46    38    32   ar
    47    45    39   ar
    48    11    12    1
@<TRIPOS>MOLECULE
*****
 45 48 0 0 0
SMALL
GASTEIGER

@<TRIPOS>ATOM
      1 C         141.0993  144.9262  161.4982 C.3     1  UNL1        0.0412
      2 C         140.3556  145.5837  160.3737 C.3     1  UNL1        0.0249
      3 C         140.9546  145.1105  159.0825 C.3     1  UNL1        0.0935
      4 N         142.0686  144.1606  159.4089 N.am    1  UNL1       -0.2795
      5 C         142.9401  143.4494  158.4166 C.2     1  UNL1        0.2256
      6 O         142.7317  143.6632  156.9467 O.2     1  UNL1       -0.2749
      7 C         142.1580  144.0467  160.9019 C.3     1  UNL1        0.0951
      8 C         140.8315  145.1150  162.9620 C.3     1  UNL1        0.0914
      9 C         139.8843  143.8539  165.0265 C.2     1  UNL1        0.2458
     10 O         138.8862  144.9531  165.2400 O.2     1  UNL1       -0.2701
     11 N         140.8569  143.9349  163.8875 N.am    1  UNL1       -0.3008
     12 H         141.5120  143.2135  163.7473 H       1  UNL1        0.1497
     13 C         140.3439  141.6723  168.3097 C.ar    1  UNL1       -0.0230
     14 C         140.3184  142.8524  167.3842 C.ar    1  UNL1        0.0002
     15 C         139.9097  142.6737  165.9520 C.ar    1  UNL1        0.0527
     16 C         139.5266  141.3149  165.4454 C.ar    1  UNL1        0.0002
     17 C         139.5521  140.1348  166.3709 C.ar    1  UNL1       -0.0230
     18 C         139.9607  140.3135  167.8030 C.ar    1  UNL1       -0.0086
     19 C         140.7105  143.3403  169.5680 C.3     1  UNL1        0.0044
     20 C         140.7525  141.8510  169.7418 C.3     1  UNL1        0.0189
     21 C         140.7946  140.3617  169.9157 C.3     1  UNL1        0.0044
     22 C         141.1612  142.0297  171.1740 C.3     1  UNL1        0.0044
     23 C         139.1689  138.7758  165.8643 C.3     1  UNL1        0.0189
     24 C         137.8192  138.9183  166.5029 C.3     1  UNL1        0.0044
     25 C         140.5186  138.6334  165.2256 C.3     1  UNL1        0.0044
     26 C         138.7858  137.4170  165.3576 C.3     1  UNL1        0.0044
     27 C         144.0200  142.5245  158.8943 C.3     1  UNL1        0.0853
     28 C         144.0656  141.1079  158.4032 C.3     1  UNL1        0.0096
     29 C         143.4884  140.0050  159.2401 C.3     1  UNL1        0.0012
     30 C         143.9101  139.8503  160.6714 C.3     1  UNL1        0.0087
     31 C         142.9962  140.2948  161.7747 C.3     1  UNL1        0.0446
     32 C         143.5112  141.1953  162.8580 C.ar    1  UNL1       -0.0183
     33 C         144.5287  142.2494  162.5363 C.ar    1  UNL1       -0.0017
     34 C         145.0438  143.1501  163.6196 C.ar    1  UNL1        0.0293
     35 C         144.5413  142.9967  165.0246 C.ar    1  UNL1        0.1401
     36 F         145.0563  143.8973  166.1080 F       1  UNL1       -0.2042
     37 C         143.5237  141.9425  165.3462 C.ar    1  UNL1        0.0293
     38 C         143.0086  141.0419  164.2629 C.ar    1  UNL1       -0.0017
     39 C         141.5673  139.8386  161.7946 C.ar    1  UNL1       -0.0183
     40 C         141.2462  138.3750  161.7243 C.ar    1  UNL1       -0.0017
     41 C         139.8174  137.9189  161.7442 C.ar    1  UNL1        0.0293
     42 C         138.7097  138.9263  161.8344 C.ar    1  UNL1        0.1401
     43 F         137.2809  138.4702  161.8544 F       1  UNL1       -0.2042
     44 C         139.0308  140.3899  161.9048 C.ar    1  UNL1        0.0293
     45 C         140.4597  140.8460  161.8849 C.ar    1  UNL1       -0.0017
@<TRIPOS>BOND
     1    19    20    1
     2    20    21    1
     3    20    22    1
     4    20    13    1
     5    13    14   ar
     6    14    15   ar
     7    15     9    1
     8     9    10    2
     9     9    11   am
    10    11     8    1
    11     8     1    1
    12     1     2    1
    13     2     3    1
    14     3     4    1
    15     4     5   am
    16     5     6    2
    17     5    27    1
    18    27    28    1
    19    28    29    1
    20    29    30    1
    21    30    31    1
    22    31    32    1
    23    32    33   ar
    24    33    34   ar
    25    34    35   ar
    26    35    36    1
    27    35    37   ar
    28    37    38   ar
    29    31    39    1
    30    39    40   ar
    31    40    41   ar
    32    41    42   ar
    33    42    43    1
    34    42    44   ar
    35    44    45   ar
    36     4     7    1
    37    15    16   ar
    38    16    17   ar
    39    17    23    1
    40    23    24    1
    41    23    25    1
    42    23    26    1
    43    17    18   ar
    44    18    13   ar
    45     7     1    1
    46    38    32   ar
    47    45    39   ar
    48    11    12    1
@<TRIPOS>MOLECULE
*****
 45 48 0 0 0
SMALL
GASTEIGER

@<TRIPOS>ATOM
      1 C         141.0446  145.1698  161.9098 C.3     1  UNL1        0.0412
      2 C         140.0672  145.8508  160.9982 C.3     1  UNL1        0.0249
      3 C         140.3115  145.3556  159.6035 C.3     1  UNL1        0.0935
      4 N         141.4400  144.3686  159.6531 N.am    1  UNL1       -0.2795
      5 C         142.0145  143.6267  158.4829 C.2     1  UNL1        0.2256
      6 O         141.4553  143.8455  157.1083 O.2     1  UNL1       -0.2749
      7 C         141.8930  144.2538  161.0784 C.3     1  UNL1        0.0951
      8 C         141.1543  145.3697  163.3923 C.3     1  UNL1        0.0914
      9 C         139.9322  143.7988  165.0623 C.2     1  UNL1        0.2458
     10 O         138.6755  144.6009  164.8972 O.2     1  UNL1       -0.2701
     11 N         141.1716  144.1832  164.3099 N.am    1  UNL1       -0.3008
     12 H         141.9964  143.6568  164.4183 H       1  UNL1        0.1497
     13 C         139.5542  140.0770  166.3871 C.ar    1  UNL1       -0.0230
     14 C         139.5368  141.2635  165.4696 C.ar    1  UNL1        0.0002
     15 C         139.9496  142.6123  165.9799 C.ar    1  UNL1        0.0527
     16 C         140.3797  142.7746  167.4077 C.ar    1  UNL1        0.0002
     17 C         140.3970  141.5880  168.3252 C.ar    1  UNL1       -0.0230
     18 C         139.9843  140.2393  167.8149 C.ar    1  UNL1       -0.0086
     19 C         137.8392  138.8488  166.6113 C.3     1  UNL1        0.0044
     20 C         139.1414  138.7282  165.8768 C.3     1  UNL1        0.0189
     21 C         140.4437  138.6076  165.1422 C.3     1  UNL1        0.0044
     22 C         138.7287  137.3794  165.3665 C.3     1  UNL1        0.0044
     23 C         140.8271  141.7503  169.7531 C.3     1  UNL1        0.0189
     24 C         141.1052  140.2787  169.8365 C.3     1  UNL1        0.0044
     25 C         140.5490  143.2219  169.6696 C.3     1  UNL1        0.0044
     26 C         141.2572  141.9126  171.1809 C.3     1  UNL1        0.0044
     27 C         143.1481  142.6661  158.6871 C.3     1  UNL1        0.0853
     28 C         142.8650  141.2159  158.9460 C.3     1  UNL1        0.0096
     29 C         143.9595  140.3134  159.4333 C.3     1  UNL1        0.0012
     30 C         143.8398  139.6435  160.7701 C.3     1  UNL1        0.0087
     31 C         142.9007  140.1928  161.8028 C.3     1  UNL1        0.0446
     32 C         143.4099  141.1321  162.8555 C.ar    1  UNL1       -0.0183
     33 C         144.2168  142.3338  162.4616 C.ar    1  UNL1       -0.0017
     34 C         144.7260  143.2732  163.5143 C.ar    1  UNL1        0.0293
     35 C         144.4284  143.0109  164.9609 C.ar    1  UNL1        0.1401
     36 F         144.9377  143.9504  166.0137 F       1  UNL1       -0.2042
     37 C         143.6216  141.8093  165.3548 C.ar    1  UNL1        0.0293
     38 C         143.1124  140.8699  164.3021 C.ar    1  UNL1       -0.0017
     39 C         141.4524  139.8027  161.7827 C.ar    1  UNL1       -0.0183
     40 C         141.0647  138.3690  161.5724 C.ar    1  UNL1       -0.0017
     41 C         139.6165  137.9789  161.5523 C.ar    1  UNL1        0.0293
     42 C         138.5559  139.0225  161.7425 C.ar    1  UNL1        0.1401
     43 F         137.1077  138.6325  161.7224 F       1  UNL1       -0.2042
     44 C         138.9436  140.4562  161.9528 C.ar    1  UNL1        0.0293
     45 C         140.3920  140.8464  161.9729 C.ar    1  UNL1       -0.0017
@<TRIPOS>BOND
     1    19    20    1
     2    20    21    1
     3    20    22    1
     4    20    13    1
     5    13    14   ar
     6    14    15   ar
     7    15     9    1
     8     9    10    2
     9     9    11   am
    10    11     8    1
    11     8     1    1
    12     1     2    1
    13     2     3    1
    14     3     4    1
    15     4     5   am
    16     5     6    2
    17     5    27    1
    18    27    28    1
    19    28    29    1
    20    29    30    1
    21    30    31    1
    22    31    32    1
    23    32    33   ar
    24    33    34   ar
    25    34    35   ar
    26    35    36    1
    27    35    37   ar
    28    37    38   ar
    29    31    39    1
    30    39    40   ar
    31    40    41   ar
    32    41    42   ar
    33    42    43    1
    34    42    44   ar
    35    44    45   ar
    36     4     7    1
    37    15    16   ar
    38    16    17   ar
    39    17    23    1
    40    23    24    1
    41    23    25    1
    42    23    26    1
    43    17    18   ar
    44    18    13   ar
    45     7     1    1
    46    38    32   ar
    47    45    39   ar
    48    11    12    1
