@<TRIPOS>MOLECULE
*****
 29 31 0 0 0
SMALL
GASTEIGER

@<TRIPOS>ATOM
      1 N         140.7462  143.2691  165.4002 N.3     1  UNL1       -0.2725
      2 C         139.2768  143.5320  165.2525 C.3     1  UNL1        0.0749
      3 C         138.7820  144.4308  164.1583 C.3     1  UNL1        0.0517
      4 C         139.7566  145.0668  163.2118 C.3     1  UNL1        0.1544
      5 F         138.4706  145.6169  162.6700 F       1  UNL1       -0.2382
      6 C         141.2260  144.8039  163.3596 C.3     1  UNL1        0.0517
      7 C         141.7208  143.9050  164.4537 C.3     1  UNL1        0.0749
      8 C         141.2410  142.3703  166.4944 C.3     1  UNL1        0.0722
      9 C         137.6375  138.2847  166.9717 C.3     1  UNL1        0.0296
     10 C         138.6262  139.4070  166.8577 C.3     1  UNL1        0.0930
     11 C         138.4384  139.0769  165.4065 C.3     1  UNL1        0.0296
     12 C         139.5496  140.4146  166.2397 C.3     1  UNL1        0.0287
     13 C         140.3175  141.3626  167.1124 C.3     1  UNL1        0.0208
     14 C         140.1620  141.3030  168.6031 C.3     1  UNL1        0.0335
     15 C         139.2385  140.2954  169.2211 C.3     1  UNL1        0.1420
     16 O         138.4706  139.3474  168.3484 O.3     1  UNL1       -0.3585
     17 C         140.2846  145.8938  162.0772 C.3     1  UNL1        0.1224
     18 N         139.7341  145.7081  160.6943 N.am    1  UNL1       -0.2984
     19 C         140.6293  145.2335  159.5882 C.2     1  UNL1        0.2460
     20 O         142.0750  144.9446  159.8651 O.2     1  UNL1       -0.2701
     21 H         138.7852  145.8976  160.5125 H       1  UNL1        0.1498
     22 C         140.0789  145.0477  158.2053 C.ar    1  UNL1        0.0550
     23 C         140.0749  146.1953  157.2393 C.ar    1  UNL1        0.0160
     24 C         139.5246  146.0096  155.8563 C.ar    1  UNL1        0.0587
     25 CL        139.5206  147.1571  154.8903 Cl      1  UNL1       -0.0822
     26 C         138.9781  144.6763  155.4393 C.ar    1  UNL1        0.0228
     27 C         138.9821  143.5288  156.4053 C.ar    1  UNL1        0.0587
     28 CL        138.4357  142.1955  155.9883 Cl      1  UNL1       -0.0822
     29 C         139.5325  143.7144  157.7883 C.ar    1  UNL1        0.0160
@<TRIPOS>BOND
     1     9    10    1
     2    10    11    1
     3    10    12    1
     4    12    13    1
     5    13     8    1
     6     8     1    1
     7     1     2    1
     8     2     3    1
     9     3     4    1
    10     4     5    1
    11     4    17    1
    12    17    18    1
    13    18    19   am
    14    19    20    2
    15    19    22    1
    16    22    23   ar
    17    23    24   ar
    18    24    25    1
    19    24    26   ar
    20    26    27   ar
    21    27    28    1
    22    27    29   ar
    23     4     6    1
    24     6     7    1
    25    13    14    1
    26    14    15    1
    27    15    16    1
    28    16    10    1
    29     7     1    1
    30    29    22   ar
    31    18    21    1
@<TRIPOS>MOLECULE
*****
 29 31 0 0 0
SMALL
GASTEIGER

@<TRIPOS>ATOM
      1 N         141.0183  143.1966  164.9912 N.3     1  UNL1       -0.2725
      2 C         139.5288  143.1814  164.8139 C.3     1  UNL1        0.0749
      3 C         138.8840  144.0886  163.8083 C.3     1  UNL1        0.0517
      4 C         139.7286  145.0110  162.9800 C.3     1  UNL1        0.1544
      5 F         138.3684  145.3580  162.4513 F       1  UNL1       -0.2382
      6 C         141.2180  145.0261  163.1574 C.3     1  UNL1        0.0517
      7 C         141.8628  144.1190  164.1630 C.3     1  UNL1        0.0749
      8 C         141.6631  142.2894  165.9968 C.3     1  UNL1        0.0722
      9 C         139.5037  142.7163  171.0028 C.3     1  UNL1        0.0296
     10 C         140.0902  142.5832  169.6286 C.3     1  UNL1        0.0930
     11 C         140.4930  143.9923  169.9485 C.3     1  UNL1        0.0296
     12 C         140.8167  142.9396  168.3656 C.3     1  UNL1        0.0287
     13 C         140.9366  141.9330  167.2599 C.3     1  UNL1        0.0208
     14 C         140.3302  140.5702  167.4173 C.3     1  UNL1        0.0335
     15 C         139.6038  140.2139  168.6803 C.3     1  UNL1        0.1420
     16 O         139.4838  141.2204  169.7860 O.3     1  UNL1       -0.3585
     17 C         140.1008  146.0539  161.9681 C.3     1  UNL1        0.1224
     18 N         139.6427  145.9165  160.5464 N.am    1  UNL1       -0.2984
     19 C         140.5811  145.3840  159.5043 C.2     1  UNL1        0.2460
     20 O         141.9774  144.9890  159.8840 O.2     1  UNL1       -0.2701
     21 H         138.7262  146.1758  160.2973 H       1  UNL1        0.1498
     22 C         140.1231  145.2467  158.0826 C.ar    1  UNL1        0.0550
     23 C         139.8218  143.8894  157.5195 C.ar    1  UNL1        0.0160
     24 C         139.3638  143.7519  156.0978 C.ar    1  UNL1        0.0587
     25 CL        139.0625  142.3947  155.5347 Cl      1  UNL1       -0.0822
     26 C         139.2072  144.9718  155.2390 C.ar    1  UNL1        0.0228
     27 C         139.5085  146.3291  155.8021 C.ar    1  UNL1        0.0587
     28 CL        139.3518  147.5490  154.9434 Cl      1  UNL1       -0.0822
     29 C         139.9665  146.4666  157.2238 C.ar    1  UNL1        0.0160
@<TRIPOS>BOND
     1     9    10    1
     2    10    11    1
     3    10    12    1
     4    12    13    1
     5    13     8    1
     6     8     1    1
     7     1     2    1
     8     2     3    1
     9     3     4    1
    10     4     5    1
    11     4    17    1
    12    17    18    1
    13    18    19   am
    14    19    20    2
    15    19    22    1
    16    22    23   ar
    17    23    24   ar
    18    24    25    1
    19    24    26   ar
    20    26    27   ar
    21    27    28    1
    22    27    29   ar
    23     4     6    1
    24     6     7    1
    25    13    14    1
    26    14    15    1
    27    15    16    1
    28    16    10    1
    29     7     1    1
    30    29    22   ar
    31    18    21    1
@<TRIPOS>MOLECULE
*****
 29 31 0 0 0
SMALL
GASTEIGER

@<TRIPOS>ATOM
      1 N         142.5625  141.8578  165.4534 N.3     1  UNL1       -0.2725
      2 C         143.7890  142.7193  165.5142 C.3     1  UNL1        0.0749
      3 C         143.8623  143.9783  164.7020 C.3     1  UNL1        0.0517
      4 C         142.7090  144.3757  163.8290 C.3     1  UNL1        0.1544
      5 F         143.6482  145.5123  163.5533 F       1  UNL1       -0.2382
      6 C         141.4826  143.5142  163.7682 C.3     1  UNL1        0.0517
      7 C         141.4094  142.2553  164.5804 C.3     1  UNL1        0.0749
      8 C         142.4893  140.5989  166.2657 C.3     1  UNL1        0.0722
      9 C         137.5438  138.4079  167.0697 C.3     1  UNL1        0.0296
     10 C         138.9001  139.0150  166.8650 C.3     1  UNL1        0.0930
     11 C         138.6945  138.3782  165.5225 C.3     1  UNL1        0.0296
     12 C         140.1849  139.4010  166.1940 C.3     1  UNL1        0.0287
     13 C         141.2044  140.2129  166.9367 C.3     1  UNL1        0.0208
     14 C         140.9390  140.6389  168.3502 C.3     1  UNL1        0.0335
     15 C         139.6542  140.2529  169.0211 C.3     1  UNL1        0.1420
     16 O         138.6347  139.4410  168.2785 O.3     1  UNL1       -0.3585
     17 C         141.8819  145.1679  162.8602 C.3     1  UNL1        0.1224
     18 N         142.1138  145.0261  161.3850 N.am    1  UNL1       -0.2984
     19 C         140.9956  145.2917  160.4211 C.2     1  UNL1        0.2460
     20 O         139.6456  145.6991  160.9324 O.2     1  UNL1       -0.2701
     21 H         142.9999  144.7587  161.0495 H       1  UNL1        0.1498
     22 C         141.2274  145.1499  158.9460 C.ar    1  UNL1        0.0550
     23 C         142.2346  144.1618  158.4366 C.ar    1  UNL1        0.0160
     24 C         142.4664  144.0200  156.9615 C.ar    1  UNL1        0.0587
     25 CL        143.4736  143.0320  156.4521 Cl      1  UNL1       -0.0822
     26 C         141.6911  144.8662  155.9956 C.ar    1  UNL1        0.0228
     27 C         140.6839  145.8542  156.5050 C.ar    1  UNL1        0.0587
     28 CL        139.9086  146.7004  155.5391 Cl      1  UNL1       -0.0822
     29 C         140.4521  145.9961  157.9801 C.ar    1  UNL1        0.0160
@<TRIPOS>BOND
     1     9    10    1
     2    10    11    1
     3    10    12    1
     4    12    13    1
     5    13     8    1
     6     8     1    1
     7     1     2    1
     8     2     3    1
     9     3     4    1
    10     4     5    1
    11     4    17    1
    12    17    18    1
    13    18    19   am
    14    19    20    2
    15    19    22    1
    16    22    23   ar
    17    23    24   ar
    18    24    25    1
    19    24    26   ar
    20    26    27   ar
    21    27    28    1
    22    27    29   ar
    23     4     6    1
    24     6     7    1
    25    13    14    1
    26    14    15    1
    27    15    16    1
    28    16    10    1
    29     7     1    1
    30    29    22   ar
    31    18    21    1
@<TRIPOS>MOLECULE
*****
 29 31 0 0 0
SMALL
GASTEIGER

@<TRIPOS>ATOM
      1 N         138.2063  140.2771  161.8980 N.3     1  UNL1       -0.2725
      2 C         138.7505  138.8874  161.7466 C.3     1  UNL1        0.0749
      3 C         138.9720  138.0326  162.9591 C.3     1  UNL1        0.0517
      4 C         138.6494  138.5673  164.3230 C.3     1  UNL1        0.1544
      5 F         139.1408  137.1983  164.6895 F       1  UNL1       -0.2382
      6 C         138.1053  139.9569  164.4743 C.3     1  UNL1        0.0517
      7 C         137.8837  140.8118  163.2619 C.3     1  UNL1        0.0749
      8 C         137.9847  141.1320  160.6856 C.3     1  UNL1        0.0722
      9 C         139.9256  146.0626  162.0369 C.3     1  UNL1        0.0296
     10 C         139.3993  144.7122  161.6505 C.3     1  UNL1        0.0930
     11 C         138.9623  144.7615  163.0846 C.3     1  UNL1        0.0296
     12 C         138.7212  143.3789  161.7621 C.3     1  UNL1        0.0287
     13 C         138.6628  142.4653  160.5739 C.3     1  UNL1        0.0208
     14 C         139.2826  142.8850  159.2740 C.3     1  UNL1        0.0335
     15 C         139.9608  144.2182  159.1624 C.3     1  UNL1        0.1420
     16 O         140.0191  145.1318  160.3506 O.3     1  UNL1       -0.3585
     17 C         138.4975  138.6265  165.8141 C.3     1  UNL1        0.1224
     18 N         139.4559  139.4386  166.6339 N.am    1  UNL1       -0.2984
     19 C         139.1674  139.7023  168.0821 C.2     1  UNL1        0.2460
     20 O         137.9206  139.1540  168.7104 O.2     1  UNL1       -0.2701
     21 H         140.2742  139.7984  166.2215 H       1  UNL1        0.1498
     22 C         140.1257  140.5143  168.9020 C.ar    1  UNL1        0.0550
     23 C         139.9067  141.9887  169.0700 C.ar    1  UNL1        0.0160
     24 C         140.8649  142.8008  169.8898 C.ar    1  UNL1        0.0587
     25 CL        140.6459  144.2751  170.0578 Cl      1  UNL1       -0.0822
     26 C         142.0424  142.1384  170.5417 C.ar    1  UNL1        0.0228
     27 C         142.2615  140.6640  170.3738 C.ar    1  UNL1        0.0587
     28 CL        143.4389  140.0017  171.0257 Cl      1  UNL1       -0.0822
     29 C         141.3032  139.8519  169.5539 C.ar    1  UNL1        0.0160
@<TRIPOS>BOND
     1     9    10    1
     2    10    11    1
     3    10    12    1
     4    12    13    1
     5    13     8    1
     6     8     1    1
     7     1     2    1
     8     2     3    1
     9     3     4    1
    10     4     5    1
    11     4    17    1
    12    17    18    1
    13    18    19   am
    14    19    20    2
    15    19    22    1
    16    22    23   ar
    17    23    24   ar
    18    24    25    1
    19    24    26   ar
    20    26    27   ar
    21    27    28    1
    22    27    29   ar
    23     4     6    1
    24     6     7    1
    25    13    14    1
    26    14    15    1
    27    15    16    1
    28    16    10    1
    29     7     1    1
    30    29    22   ar
    31    18    21    1
@<TRIPOS>MOLECULE
*****
 29 31 0 0 0
SMALL
GASTEIGER

@<TRIPOS>ATOM
      1 N         139.3490  142.4830  164.9989 N.3     1  UNL1       -0.2725
      2 C         138.0163  142.8736  164.4319 C.3     1  UNL1        0.0749
      3 C         137.9225  143.9965  163.4418 C.3     1  UNL1        0.0517
      4 C         139.1614  144.7287  163.0186 C.3     1  UNL1        0.1544
      5 F         138.1352  145.4621  162.2067 F       1  UNL1       -0.2382
      6 C         140.4940  144.3380  163.5855 C.3     1  UNL1        0.0517
      7 C         140.5878  143.2151  164.5756 C.3     1  UNL1        0.0749
      8 C         139.4428  141.3601  165.9890 C.3     1  UNL1        0.0722
      9 C         142.3098  142.8727  170.3933 C.3     1  UNL1        0.0296
     10 C         141.5344  142.4451  169.1825 C.3     1  UNL1        0.0930
     11 C         140.7076  143.6175  169.6207 C.3     1  UNL1        0.0296
     12 C         140.4719  142.4247  168.1239 C.3     1  UNL1        0.0287
     13 C         140.5054  141.3804  167.0476 C.3     1  UNL1        0.0208
     14 C         141.6014  140.3566  167.0299 C.3     1  UNL1        0.0335
     15 C         142.6639  140.3769  168.0885 C.3     1  UNL1        0.1420
     16 O         142.6304  141.4212  169.1648 O.3     1  UNL1       -0.3585
     17 C         140.0439  145.7156  162.3134 C.3     1  UNL1        0.1224
     18 N         139.9911  145.8349  160.8191 N.am    1  UNL1       -0.2984
     19 C         141.1079  145.2839  159.9828 C.2     1  UNL1        0.2460
     20 O         142.2774  144.6138  160.6409 O.2     1  UNL1       -0.2701
     21 H         139.2235  146.2747  160.3872 H       1  UNL1        0.1498
     22 C         141.0552  145.4032  158.4885 C.ar    1  UNL1        0.0550
     23 C         139.9741  146.2149  157.8386 C.ar    1  UNL1        0.0160
     24 C         139.9213  146.3342  156.3443 C.ar    1  UNL1        0.0587
     25 CL        138.8402  147.1458  155.6943 Cl      1  UNL1       -0.0822
     26 C         140.9498  145.6418  155.4999 C.ar    1  UNL1        0.0228
     27 C         142.0309  144.8301  156.1498 C.ar    1  UNL1        0.0587
     28 CL        143.0593  144.1377  155.3054 Cl      1  UNL1       -0.0822
     29 C         142.0836  144.7108  157.6441 C.ar    1  UNL1        0.0160
@<TRIPOS>BOND
     1     9    10    1
     2    10    11    1
     3    10    12    1
     4    12    13    1
     5    13     8    1
     6     8     1    1
     7     1     2    1
     8     2     3    1
     9     3     4    1
    10     4     5    1
    11     4    17    1
    12    17    18    1
    13    18    19   am
    14    19    20    2
    15    19    22    1
    16    22    23   ar
    17    23    24   ar
    18    24    25    1
    19    24    26   ar
    20    26    27   ar
    21    27    28    1
    22    27    29   ar
    23     4     6    1
    24     6     7    1
    25    13    14    1
    26    14    15    1
    27    15    16    1
    28    16    10    1
    29     7     1    1
    30    29    22   ar
    31    18    21    1
@<TRIPOS>MOLECULE
*****
 29 31 0 0 0
SMALL
GASTEIGER

@<TRIPOS>ATOM
      1 N         140.6823  141.2943  164.3774 N.3     1  UNL1       -0.2725
      2 C         139.5164  142.0715  164.9128 C.3     1  UNL1        0.0749
      3 C         139.3793  143.5313  164.5963 C.3     1  UNL1        0.0517
      4 C         140.4082  144.2139  163.7444 C.3     1  UNL1        0.1544
      5 F         139.4887  145.3673  164.0167 F       1  UNL1       -0.2382
      6 C         141.5740  143.4366  163.2091 C.3     1  UNL1        0.0517
      7 C         141.7111  141.9768  163.5256 C.3     1  UNL1        0.0749
      8 C         140.8194  139.8344  164.6940 C.3     1  UNL1        0.0722
      9 C         142.6028  139.1891  169.8231 C.3     1  UNL1        0.0296
     10 C         142.1266  139.3568  168.4106 C.3     1  UNL1        0.0930
     11 C         141.0728  140.1405  169.1354 C.3     1  UNL1        0.0296
     12 C         141.2845  139.7966  167.2498 C.3     1  UNL1        0.0287
     13 C         141.6615  139.3945  165.8547 C.3     1  UNL1        0.0208
     14 C         142.8806  138.5526  165.6204 C.3     1  UNL1        0.0335
     15 C         143.7227  138.1128  166.7812 C.3     1  UNL1        0.1420
     16 O         143.3457  138.5149  168.1762 O.3     1  UNL1       -0.3585
     17 C         141.1177  145.2970  162.9871 C.3     1  UNL1        0.1224
     18 N         141.5409  145.0654  161.5668 N.am    1  UNL1       -0.2984
     19 C         140.6512  145.4977  160.4391 C.2     1  UNL1        0.2460
     20 O         139.3384  146.1617  160.7319 O.2     1  UNL1       -0.2701
     21 H         142.4026  144.6296  161.3747 H       1  UNL1        0.1498
     22 C         141.0744  145.2661  159.0189 C.ar    1  UNL1        0.0550
     23 C         142.1112  144.2286  158.7048 C.ar    1  UNL1        0.0160
     24 C         142.5343  143.9969  157.2846 C.ar    1  UNL1        0.0587
     25 CL        143.5711  142.9594  156.9705 Cl      1  UNL1       -0.0822
     26 C         141.9207  144.8028  156.1782 C.ar    1  UNL1        0.0228
     27 C         140.8839  145.8403  156.4922 C.ar    1  UNL1        0.0587
     28 CL        140.2702  146.6463  155.3859 Cl      1  UNL1       -0.0822
     29 C         140.4607  146.0720  157.9125 C.ar    1  UNL1        0.0160
@<TRIPOS>BOND
     1     9    10    1
     2    10    11    1
     3    10    12    1
     4    12    13    1
     5    13     8    1
     6     8     1    1
     7     1     2    1
     8     2     3    1
     9     3     4    1
    10     4     5    1
    11     4    17    1
    12    17    18    1
    13    18    19   am
    14    19    20    2
    15    19    22    1
    16    22    23   ar
    17    23    24   ar
    18    24    25    1
    19    24    26   ar
    20    26    27   ar
    21    27    28    1
    22    27    29   ar
    23     4     6    1
    24     6     7    1
    25    13    14    1
    26    14    15    1
    27    15    16    1
    28    16    10    1
    29     7     1    1
    30    29    22   ar
    31    18    21    1
@<TRIPOS>MOLECULE
*****
 29 31 0 0 0
SMALL
GASTEIGER

@<TRIPOS>ATOM
      1 N         141.3030  144.9421  160.2937 N.3     1  UNL1       -0.2725
      2 C         140.1483  145.7456  160.8145 C.3     1  UNL1        0.0749
      3 C         139.7666  145.6586  162.2624 C.3     1  UNL1        0.0517
      4 C         140.5395  144.7681  163.1897 C.3     1  UNL1        0.1544
      5 F         139.5317  145.3301  164.1481 F       1  UNL1       -0.2382
      6 C         141.6941  143.9646  162.6689 C.3     1  UNL1        0.0517
      7 C         142.0759  144.0516  161.2209 C.3     1  UNL1        0.0749
      8 C         141.6848  145.0291  158.8457 C.3     1  UNL1        0.0722
      9 C         138.0351  146.0009  154.8909 C.3     1  UNL1        0.0296
     10 C         139.0332  145.7177  155.9743 C.3     1  UNL1        0.0930
     11 C         139.1295  147.2135  155.9159 C.3     1  UNL1        0.0296
     12 C         140.0647  145.9539  157.0374 C.3     1  UNL1        0.0287
     13 C         140.6532  144.7928  157.7826 C.3     1  UNL1        0.0208
     14 C         140.2103  143.3954  157.4647 C.3     1  UNL1        0.0335
     15 C         139.1788  143.1591  156.4017 C.3     1  UNL1        0.1420
     16 O         138.5902  144.3203  155.6565 O.3     1  UNL1       -0.3585
     17 C         140.9624  144.0728  164.4498 C.3     1  UNL1        0.1224
     18 N         140.8331  142.5827  164.5637 N.am    1  UNL1       -0.2984
     19 C         139.4880  141.9626  164.8010 C.2     1  UNL1        0.2460
     20 O         138.2723  142.8327  164.9244 O.2     1  UNL1       -0.2701
     21 H         141.6310  142.0118  164.4827 H       1  UNL1        0.1498
     22 C         139.3586  140.4726  164.9150 C.ar    1  UNL1        0.0550
     23 C         140.1750  139.5790  164.0291 C.ar    1  UNL1        0.0160
     24 C         140.0457  138.0889  164.1430 C.ar    1  UNL1        0.0587
     25 CL        140.8622  137.1953  163.2572 Cl      1  UNL1       -0.0822
     26 C         139.0998  137.4925  165.1429 C.ar    1  UNL1        0.0228
     27 C         138.2834  138.3861  166.0287 C.ar    1  UNL1        0.0587
     28 CL        137.3375  137.7897  167.0286 Cl      1  UNL1       -0.0822
     29 C         138.4127  139.8762  165.9149 C.ar    1  UNL1        0.0160
@<TRIPOS>BOND
     1     9    10    1
     2    10    11    1
     3    10    12    1
     4    12    13    1
     5    13     8    1
     6     8     1    1
     7     1     2    1
     8     2     3    1
     9     3     4    1
    10     4     5    1
    11     4    17    1
    12    17    18    1
    13    18    19   am
    14    19    20    2
    15    19    22    1
    16    22    23   ar
    17    23    24   ar
    18    24    25    1
    19    24    26   ar
    20    26    27   ar
    21    27    28    1
    22    27    29   ar
    23     4     6    1
    24     6     7    1
    25    13    14    1
    26    14    15    1
    27    15    16    1
    28    16    10    1
    29     7     1    1
    30    29    22   ar
    31    18    21    1
@<TRIPOS>MOLECULE
*****
 29 31 0 0 0
SMALL
GASTEIGER

@<TRIPOS>ATOM
      1 N         140.5986  143.1381  165.1024 N.3     1  UNL1       -0.2725
      2 C         139.1223  143.2254  164.8513 C.3     1  UNL1        0.0749
      3 C         138.5908  144.1866  163.8298 C.3     1  UNL1        0.0517
      4 C         139.5357  145.0605  163.0592 C.3     1  UNL1        0.1544
      5 F         138.2300  145.5050  162.4694 F       1  UNL1       -0.2382
      6 C         141.0119  144.9732  163.3103 C.3     1  UNL1        0.0517
      7 C         141.5434  144.0120  164.3319 C.3     1  UNL1        0.0749
      8 C         141.1300  142.1769  166.1240 C.3     1  UNL1        0.0722
      9 C         141.0991  136.9522  164.5093 C.3     1  UNL1        0.0296
     10 C         141.1246  138.3852  164.9519 C.3     1  UNL1        0.0930
     11 C         139.6433  138.1537  164.9038 C.3     1  UNL1        0.0296
     12 C         140.6356  139.7378  165.3778 C.3     1  UNL1        0.0287
     13 C         141.6191  140.8242  165.6981 C.3     1  UNL1        0.0208
     14 C         143.0914  140.5581  165.5924 C.3     1  UNL1        0.0335
     15 C         143.5804  139.2055  165.1666 C.3     1  UNL1        0.1420
     16 O         142.5969  138.1191  164.8463 O.3     1  UNL1       -0.3585
     17 C         140.0271  146.0888  162.0839 C.3     1  UNL1        0.1224
     18 N         139.5998  146.0245  160.6475 N.am    1  UNL1       -0.2984
     19 C         140.5181  145.4365  159.6175 C.2     1  UNL1        0.2460
     20 O         141.8637  144.9129  160.0239 O.2     1  UNL1       -0.2701
     21 H         138.7166  146.3682  160.3808 H       1  UNL1        0.1498
     22 C         140.0909  145.3722  158.1811 C.ar    1  UNL1        0.0550
     23 C         139.7754  146.6347  157.4352 C.ar    1  UNL1        0.0160
     24 C         139.3481  146.5705  155.9987 C.ar    1  UNL1        0.0587
     25 CL        139.0326  147.8330  155.2529 Cl      1  UNL1       -0.0822
     26 C         139.2364  145.2436  155.3082 C.ar    1  UNL1        0.0228
     27 C         139.5520  143.9810  156.0541 C.ar    1  UNL1        0.0587
     28 CL        139.4403  142.6541  155.3635 Cl      1  UNL1       -0.0822
     29 C         139.9792  144.0452  157.4905 C.ar    1  UNL1        0.0160
@<TRIPOS>BOND
     1     9    10    1
     2    10    11    1
     3    10    12    1
     4    12    13    1
     5    13     8    1
     6     8     1    1
     7     1     2    1
     8     2     3    1
     9     3     4    1
    10     4     5    1
    11     4    17    1
    12    17    18    1
    13    18    19   am
    14    19    20    2
    15    19    22    1
    16    22    23   ar
    17    23    24   ar
    18    24    25    1
    19    24    26   ar
    20    26    27   ar
    21    27    28    1
    22    27    29   ar
    23     4     6    1
    24     6     7    1
    25    13    14    1
    26    14    15    1
    27    15    16    1
    28    16    10    1
    29     7     1    1
    30    29    22   ar
    31    18    21    1
@<TRIPOS>MOLECULE
*****
 29 31 0 0 0
SMALL
GASTEIGER

@<TRIPOS>ATOM
      1 N         138.8520  141.8356  163.9741 N.3     1  UNL1       -0.2725
      2 C         137.6813  142.7677  163.8698 C.3     1  UNL1        0.0749
      3 C         137.8423  144.1023  163.2042 C.3     1  UNL1        0.0517
      4 C         139.1739  144.5047  162.6430 C.3     1  UNL1        0.1544
      5 F         138.3686  145.7237  162.3027 F       1  UNL1       -0.2382
      6 C         140.3444  143.5726  162.7473 C.3     1  UNL1        0.0517
      7 C         140.1835  142.2381  163.4129 C.3     1  UNL1        0.0749
      8 C         138.6910  140.5010  164.6397 C.3     1  UNL1        0.0722
      9 C         143.4141  138.4402  166.4702 C.3     1  UNL1        0.0296
     10 C         142.1172  138.9926  165.9571 C.3     1  UNL1        0.0930
     11 C         142.4454  140.0220  166.9976 C.3     1  UNL1        0.0296
     12 C         140.9345  139.9024  165.8054 C.3     1  UNL1        0.0287
     13 C         139.8739  139.5911  164.7914 C.3     1  UNL1        0.0208
     14 C         139.9960  138.3698  163.9292 C.3     1  UNL1        0.0335
     15 C         141.1788  137.4599  164.0809 C.3     1  UNL1        0.1420
     16 O         142.2394  137.7713  165.0949 O.3     1  UNL1       -0.3585
     17 C         140.2258  145.3306  161.9635 C.3     1  UNL1        0.1224
     18 N         140.1273  145.6080  160.4927 N.am    1  UNL1       -0.2984
     19 C         141.2329  145.1809  159.5733 C.2     1  UNL1        0.2460
     20 O         142.4369  144.4764  160.1247 O.2     1  UNL1       -0.2701
     21 H         139.3371  146.0705  160.1308 H       1  UNL1        0.1498
     22 C         141.1345  145.4584  158.1025 C.ar    1  UNL1        0.0550
     23 C         139.9831  146.2553  157.5650 C.ar    1  UNL1        0.0160
     24 C         139.8846  146.5328  156.0941 C.ar    1  UNL1        0.0587
     25 CL        138.7332  147.3298  155.5566 Cl      1  UNL1       -0.0822
     26 C         140.9377  146.0133  155.1608 C.ar    1  UNL1        0.0228
     27 C         142.0892  145.2163  155.6983 C.ar    1  UNL1        0.0587
     28 CL        143.1423  144.6967  154.7650 Cl      1  UNL1       -0.0822
     29 C         142.1876  144.9388  157.1691 C.ar    1  UNL1        0.0160
@<TRIPOS>BOND
     1     9    10    1
     2    10    11    1
     3    10    12    1
     4    12    13    1
     5    13     8    1
     6     8     1    1
     7     1     2    1
     8     2     3    1
     9     3     4    1
    10     4     5    1
    11     4    17    1
    12    17    18    1
    13    18    19   am
    14    19    20    2
    15    19    22    1
    16    22    23   ar
    17    23    24   ar
    18    24    25    1
    19    24    26   ar
    20    26    27   ar
    21    27    28    1
    22    27    29   ar
    23     4     6    1
    24     6     7    1
    25    13    14    1
    26    14    15    1
    27    15    16    1
    28    16    10    1
    29     7     1    1
    30    29    22   ar
    31    18    21    1
