@<TRIPOS>MOLECULE
*****
 30 34 0 0 0
SMALL
GASTEIGER

@<TRIPOS>ATOM
      1 C         139.8020  140.0957  163.7118 C.ar    1  UNL1        0.0028
      2 C         140.8223  140.9399  164.4163 C.ar    1  UNL1        0.0002
      3 C         140.8115  141.0363  165.9131 C.ar    1  UNL1        0.0029
      4 C         139.7804  140.2887  166.7054 C.ar    1  UNL1        0.0349
      5 C         139.7696  140.3852  168.2024 C.ar    1  UNL1        0.1535
      6 N         138.7385  139.6376  168.9947 N.ar    1  UNL1       -0.1329
      7 N         137.7182  138.7934  168.2901 N.ar    1  UNL1       -0.1452
      8 C         137.7290  138.6969  166.7933 C.ar    1  UNL1        0.1222
      9 C         138.7601  139.4446  166.0010 C.ar    1  UNL1        0.0237
     10 C         138.7709  139.3481  164.5041 C.ar    1  UNL1        0.0018
     11 C         138.5261  142.2114  159.3439 C.ar    1  UNL1        0.1705
     12 N         138.0949  143.0615  160.5020 N.ar    1  UNL1       -0.0621
     13 O         138.5087  142.3675  161.7658 O.2     1  UNL1       -0.3522
     14 C         139.1956  141.0885  161.3887 C.ar    1  UNL1        0.1777
     15 C         139.8128  139.9992  162.2149 C.ar    1  UNL1        0.0333
     16 C         140.4406  138.8135  161.5443 C.ar    1  UNL1       -0.0188
     17 C         141.0578  137.7242  162.3705 C.3     1  UNL1        0.0311
     18 C         140.4514  138.7170  160.0474 C.ar    1  UNL1       -0.0040
     19 C         139.8343  139.8062  159.2212 C.ar    1  UNL1        0.0057
     20 C         139.2064  140.9920  159.8919 C.ar    1  UNL1        0.0717
     21 C         137.3546  141.7072  157.0804 C.3     1  UNL1        0.1097
     22 N         138.3142  142.5255  157.8926 N.pl3   1  UNL1       -0.3140
     23 H         138.8049  143.2688  157.4730 H       1  UNL1        0.1483
     24 N         140.7900  141.2293  168.9068 N.pl3   1  UNL1       -0.2884
     25 C         140.4583  142.6402  169.2936 C.3     1  UNL1        0.1242
     26 C         141.4787  143.4843  169.9981 C.3     1  UNL1        0.1636
     27 O         142.8307  142.9176  170.3158 O.3     1  UNL1       -0.3502
     28 C         143.1623  141.5068  169.9291 C.3     1  UNL1        0.1618
     29 C         142.1420  140.6627  169.2246 C.3     1  UNL1        0.1039
     30 C         142.4737  139.2518  168.8378 C.3     1  UNL1        0.0241
@<TRIPOS>BOND
     1    21    22    1
     2    22    11    1
     3    11    12   ar
     4    12    13   ar
     5    13    14   ar
     6    14    15   ar
     7    15     1    1
     8     1     2   ar
     9     2     3   ar
    10     3     4   ar
    11     4     5   ar
    12     5    24    1
    13    24    25    1
    14    25    26    1
    15    26    27    1
    16    27    28    1
    17    28    29    1
    18    29    30    1
    19     5     6   ar
    20     6     7   ar
    21     7     8   ar
    22     8     9   ar
    23     9    10   ar
    24    15    16   ar
    25    16    17    1
    26    16    18   ar
    27    18    19   ar
    28    19    20   ar
    29    20    11   ar
    30    20    14   ar
    31    10     1   ar
    32     9     4   ar
    33    29    24    1
    34    22    23    1
@<TRIPOS>MOLECULE
*****
 30 34 0 0 0
SMALL
GASTEIGER

@<TRIPOS>ATOM
      1 C         140.5579  142.6192  163.9228 C.ar    1  UNL1        0.0028
      2 C         141.2848  143.0030  165.1775 C.ar    1  UNL1        0.0002
      3 C         141.0117  142.2691  166.4568 C.ar    1  UNL1        0.0029
      4 C         140.0117  141.1513  166.4815 C.ar    1  UNL1        0.0349
      5 C         139.7387  140.4173  167.7609 C.ar    1  UNL1        0.1535
      6 N         138.7387  139.2995  167.7855 N.ar    1  UNL1       -0.1329
      7 N         138.0118  138.9157  166.5308 N.ar    1  UNL1       -0.1452
      8 C         138.2849  139.6496  165.2514 C.ar    1  UNL1        0.1222
      9 C         139.2848  140.7674  165.2268 C.ar    1  UNL1        0.0237
     10 C         139.5579  141.5014  163.9475 C.ar    1  UNL1        0.0018
     11 C         143.3026  142.9031  159.7314 C.ar    1  UNL1        0.1705
     12 N         143.7215  141.7343  160.5730 N.ar    1  UNL1       -0.0621
     13 O         142.8608  141.7156  161.8014 O.2     1  UNL1       -0.3522
     14 C         141.9100  142.8728  161.7189 C.ar    1  UNL1        0.1777
     15 C         140.8309  143.3531  162.6434 C.ar    1  UNL1        0.0333
     16 C         140.0248  144.5673  162.2886 C.ar    1  UNL1       -0.0188
     17 C         138.9457  145.0476  163.2132 C.3     1  UNL1        0.0311
     18 C         140.2979  145.3013  161.0092 C.ar    1  UNL1       -0.0040
     19 C         141.3770  144.8210  160.0847 C.ar    1  UNL1        0.0057
     20 C         142.1831  143.6067  160.4395 C.ar    1  UNL1        0.0717
     21 C         145.0146  142.4897  157.8214 C.3     1  UNL1        0.1097
     22 N         143.8986  143.2988  158.4130 N.pl3   1  UNL1       -0.3140
     23 H         143.5574  144.0895  157.9360 H       1  UNL1        0.1483
     24 N         140.4656  140.8011  169.0155 N.pl3   1  UNL1       -0.2884
     25 C         139.8266  141.7403  169.9951 C.3     1  UNL1        0.1242
     26 C         140.5535  142.1241  171.2498 C.3     1  UNL1        0.1636
     27 O         141.9195  141.5688  171.5249 O.3     1  UNL1       -0.3502
     28 C         142.5585  140.6296  170.5454 C.3     1  UNL1        0.1618
     29 C         141.8316  140.2458  169.2907 C.3     1  UNL1        0.1039
     30 C         142.4707  139.3066  168.3111 C.3     1  UNL1        0.0241
@<TRIPOS>BOND
     1    21    22    1
     2    22    11    1
     3    11    12   ar
     4    12    13   ar
     5    13    14   ar
     6    14    15   ar
     7    15     1    1
     8     1     2   ar
     9     2     3   ar
    10     3     4   ar
    11     4     5   ar
    12     5    24    1
    13    24    25    1
    14    25    26    1
    15    26    27    1
    16    27    28    1
    17    28    29    1
    18    29    30    1
    19     5     6   ar
    20     6     7   ar
    21     7     8   ar
    22     8     9   ar
    23     9    10   ar
    24    15    16   ar
    25    16    17    1
    26    16    18   ar
    27    18    19   ar
    28    19    20   ar
    29    20    11   ar
    30    20    14   ar
    31    10     1   ar
    32     9     4   ar
    33    29    24    1
    34    22    23    1
@<TRIPOS>MOLECULE
*****
 30 34 0 0 0
SMALL
GASTEIGER

@<TRIPOS>ATOM
      1 C         141.3768  142.2461  164.1074 C.ar    1  UNL1        0.0028
      2 C         140.7888  142.6883  165.4145 C.ar    1  UNL1        0.0002
      3 C         141.1173  141.9441  166.6747 C.ar    1  UNL1        0.0029
      4 C         142.0338  140.7576  166.6277 C.ar    1  UNL1        0.0349
      5 C         142.3623  140.0134  167.8880 C.ar    1  UNL1        0.1535
      6 N         143.2789  138.8269  167.8411 N.ar    1  UNL1       -0.1329
      7 N         143.8669  138.3846  166.5339 N.ar    1  UNL1       -0.1452
      8 C         143.5384  139.1289  165.2737 C.ar    1  UNL1        0.1222
      9 C         142.6218  140.3154  165.3206 C.ar    1  UNL1        0.0237
     10 C         142.2933  141.0596  164.0604 C.ar    1  UNL1        0.0018
     11 C         138.6539  142.4035  159.8950 C.ar    1  UNL1        0.1705
     12 N         138.3374  141.1762  160.6971 N.ar    1  UNL1       -0.0621
     13 O         139.1854  141.1994  161.9341 O.2     1  UNL1       -0.3522
     14 C         140.0261  142.4411  161.8965 C.ar    1  UNL1        0.1777
     15 C         141.0483  142.9903  162.8471 C.ar    1  UNL1        0.0333
     16 C         141.7419  144.2837  162.5374 C.ar    1  UNL1       -0.0188
     17 C         142.7641  144.8329  163.4879 C.3     1  UNL1        0.0311
     18 C         141.4134  145.0280  161.2771 C.ar    1  UNL1       -0.0040
     19 C         140.3912  144.4788  160.3266 C.ar    1  UNL1        0.0057
     20 C         139.6976  143.1853  160.6363 C.ar    1  UNL1        0.0717
     21 C         137.8082  141.7374  157.5305 C.3     1  UNL1        0.1097
     22 N         138.0353  142.7826  158.5822 N.pl3   1  UNL1       -0.3140
     23 H         137.7784  143.7174  158.4107 H       1  UNL1        0.1483
     24 N         141.7743  140.4556  169.1952 N.pl3   1  UNL1       -0.2884
     25 C         140.5248  139.8072  169.7131 C.3     1  UNL1        0.1242
     26 C         139.9368  140.2496  171.0203 C.3     1  UNL1        0.1636
     27 O         140.5983  141.3402  171.8095 O.3     1  UNL1       -0.3502
     28 C         141.8479  141.9885  171.2915 C.3     1  UNL1        0.1618
     29 C         142.4359  141.5463  169.9844 C.3     1  UNL1        0.1039
     30 C         143.6854  142.1946  169.4665 C.3     1  UNL1        0.0241
@<TRIPOS>BOND
     1    21    22    1
     2    22    11    1
     3    11    12   ar
     4    12    13   ar
     5    13    14   ar
     6    14    15   ar
     7    15     1    1
     8     1     2   ar
     9     2     3   ar
    10     3     4   ar
    11     4     5   ar
    12     5    24    1
    13    24    25    1
    14    25    26    1
    15    26    27    1
    16    27    28    1
    17    28    29    1
    18    29    30    1
    19     5     6   ar
    20     6     7   ar
    21     7     8   ar
    22     8     9   ar
    23     9    10   ar
    24    15    16   ar
    25    16    17    1
    26    16    18   ar
    27    18    19   ar
    28    19    20   ar
    29    20    11   ar
    30    20    14   ar
    31    10     1   ar
    32     9     4   ar
    33    29    24    1
    34    22    23    1
@<TRIPOS>MOLECULE
*****
 30 34 0 0 0
SMALL
GASTEIGER

@<TRIPOS>ATOM
      1 C         139.6039  140.6750  163.6003 C.ar    1  UNL1        0.0028
      2 C         140.6065  141.5137  164.3359 C.ar    1  UNL1        0.0002
      3 C         140.6678  141.4679  165.8339 C.ar    1  UNL1        0.0029
      4 C         139.7264  140.5833  166.5963 C.ar    1  UNL1        0.0349
      5 C         139.7876  140.5375  168.0944 C.ar    1  UNL1        0.1535
      6 N         138.8462  139.6530  168.8568 N.ar    1  UNL1       -0.1329
      7 N         137.8435  138.8142  168.1211 N.ar    1  UNL1       -0.1452
      8 C         137.7822  138.8601  166.6231 C.ar    1  UNL1        0.1222
      9 C         138.7237  139.7446  165.8607 C.ar    1  UNL1        0.0237
     10 C         138.6624  139.7904  164.3627 C.ar    1  UNL1        0.0018
     11 C         141.2177  138.7490  159.2564 C.ar    1  UNL1        0.1705
     12 N         141.8449  138.0474  160.4244 N.ar    1  UNL1       -0.0621
     13 O         141.3168  138.6750  161.6802 O.2     1  UNL1       -0.3522
     14 C         140.3631  139.7645  161.2884 C.ar    1  UNL1        0.1777
     15 C         139.5426  140.7208  162.1022 C.ar    1  UNL1        0.0333
     16 C         138.6608  141.7229  161.4179 C.ar    1  UNL1       -0.0188
     17 C         137.8403  142.6792  162.2317 C.3     1  UNL1        0.0311
     18 C         138.5995  141.7687  159.9198 C.ar    1  UNL1       -0.0040
     19 C         139.4201  140.8123  159.1060 C.ar    1  UNL1        0.0057
     20 C         140.3019  139.8102  159.7904 C.ar    1  UNL1        0.0717
     21 C         140.3894  137.7939  156.9867 C.3     1  UNL1        0.1097
     22 N         141.4631  138.4432  157.8086 N.pl3   1  UNL1       -0.3140
     23 H         142.3290  138.6686  157.3978 H       1  UNL1        0.1483
     24 N         140.7903  141.3762  168.8300 N.pl3   1  UNL1       -0.2884
     25 C         140.4122  142.7445  169.3147 C.3     1  UNL1        0.1242
     26 C         141.4150  143.5832  170.0503 C.3     1  UNL1        0.1636
     27 O         142.7957  143.0537  170.3012 O.3     1  UNL1       -0.3502
     28 C         143.1738  141.6854  169.8166 C.3     1  UNL1        0.1618
     29 C         142.1712  140.8467  169.0810 C.3     1  UNL1        0.1039
     30 C         142.5493  139.4785  168.5963 C.3     1  UNL1        0.0241
@<TRIPOS>BOND
     1    21    22    1
     2    22    11    1
     3    11    12   ar
     4    12    13   ar
     5    13    14   ar
     6    14    15   ar
     7    15     1    1
     8     1     2   ar
     9     2     3   ar
    10     3     4   ar
    11     4     5   ar
    12     5    24    1
    13    24    25    1
    14    25    26    1
    15    26    27    1
    16    27    28    1
    17    28    29    1
    18    29    30    1
    19     5     6   ar
    20     6     7   ar
    21     7     8   ar
    22     8     9   ar
    23     9    10   ar
    24    15    16   ar
    25    16    17    1
    26    16    18   ar
    27    18    19   ar
    28    19    20   ar
    29    20    11   ar
    30    20    14   ar
    31    10     1   ar
    32     9     4   ar
    33    29    24    1
    34    22    23    1
@<TRIPOS>MOLECULE
*****
 30 34 0 0 0
SMALL
GASTEIGER

@<TRIPOS>ATOM
      1 C         141.4981  141.5146  164.0487 C.ar    1  UNL1        0.0028
      2 C         142.0524  142.1050  165.3113 C.ar    1  UNL1        0.0002
      3 C         141.4781  141.7094  166.6393 C.ar    1  UNL1        0.0029
      4 C         140.3495  140.7234  166.7047 C.ar    1  UNL1        0.0349
      5 C         139.7752  140.3278  168.0328 C.ar    1  UNL1        0.1535
      6 N         138.6466  139.3419  168.0982 N.ar    1  UNL1       -0.1329
      7 N         138.0924  138.7516  166.8354 N.ar    1  UNL1       -0.1452
      8 C         138.6667  139.1472  165.5074 C.ar    1  UNL1        0.1222
      9 C         139.7952  140.1331  165.4421 C.ar    1  UNL1        0.0237
     10 C         140.3696  140.5287  164.1141 C.ar    1  UNL1        0.0018
     11 C         141.4500  144.7853  160.2431 C.ar    1  UNL1        0.1705
     12 N         140.4480  145.1638  161.2931 N.ar    1  UNL1       -0.0621
     13 O         140.5208  144.1453  162.3918 O.2     1  UNL1       -0.3522
     14 C         141.5678  143.1372  162.0208 C.ar    1  UNL1        0.1777
     15 C         142.0725  141.9102  162.7206 C.ar    1  UNL1        0.0333
     16 C         143.1514  141.0788  162.0924 C.ar    1  UNL1       -0.0188
     17 C         143.6560  139.8518  162.7923 C.3     1  UNL1        0.0311
     18 C         143.7257  141.4744  160.7643 C.ar    1  UNL1       -0.0040
     19 C         143.2210  142.7014  160.0645 C.ar    1  UNL1        0.0057
     20 C         142.1420  143.5328  160.6928 C.ar    1  UNL1        0.0717
     21 C         140.6003  145.7565  157.9881 C.3     1  UNL1        0.1097
     22 N         141.7136  145.5288  158.9673 N.pl3   1  UNL1       -0.3140
     23 H         142.6173  145.8673  158.7726 H       1  UNL1        0.1483
     24 N         140.3294  140.9182  169.2954 N.pl3   1  UNL1       -0.2884
     25 C         139.6689  142.1123  169.9181 C.3     1  UNL1        0.1242
     26 C         140.2232  142.7026  171.1808 C.3     1  UNL1        0.1636
     27 O         141.4380  142.0988  171.8207 O.3     1  UNL1       -0.3502
     28 C         142.0986  140.9047  171.1980 C.3     1  UNL1        0.1618
     29 C         141.5444  140.3144  169.9354 C.3     1  UNL1        0.1039
     30 C         142.2049  139.1203  169.3127 C.3     1  UNL1        0.0241
@<TRIPOS>BOND
     1    21    22    1
     2    22    11    1
     3    11    12   ar
     4    12    13   ar
     5    13    14   ar
     6    14    15   ar
     7    15     1    1
     8     1     2   ar
     9     2     3   ar
    10     3     4   ar
    11     4     5   ar
    12     5    24    1
    13    24    25    1
    14    25    26    1
    15    26    27    1
    16    27    28    1
    17    28    29    1
    18    29    30    1
    19     5     6   ar
    20     6     7   ar
    21     7     8   ar
    22     8     9   ar
    23     9    10   ar
    24    15    16   ar
    25    16    17    1
    26    16    18   ar
    27    18    19   ar
    28    19    20   ar
    29    20    11   ar
    30    20    14   ar
    31    10     1   ar
    32     9     4   ar
    33    29    24    1
    34    22    23    1
@<TRIPOS>MOLECULE
*****
 30 34 0 0 0
SMALL
GASTEIGER

@<TRIPOS>ATOM
      1 C         140.4374  142.1161  164.4034 C.ar    1  UNL1        0.0028
      2 C         141.0675  141.4288  163.2285 C.ar    1  UNL1        0.0002
      3 C         141.0933  142.1045  161.8896 C.ar    1  UNL1        0.0029
      4 C         140.4891  143.4676  161.7256 C.ar    1  UNL1        0.0349
      5 C         140.5149  144.1433  160.3866 C.ar    1  UNL1        0.1535
      6 N         139.9106  145.5064  160.2227 N.ar    1  UNL1       -0.1329
      7 N         139.2805  146.1937  161.3977 N.ar    1  UNL1       -0.1452
      8 C         139.2547  145.5180  162.7366 C.ar    1  UNL1        0.1222
      9 C         139.8590  144.1549  162.9006 C.ar    1  UNL1        0.0237
     10 C         139.8332  143.4792  164.2395 C.ar    1  UNL1        0.0018
     11 C         142.6560  141.5180  168.8647 C.ar    1  UNL1        0.1705
     12 N         143.4180  142.4851  168.0080 N.ar    1  UNL1       -0.0621
     13 O         142.6977  142.6112  166.6983 O.2     1  UNL1       -0.3522
     14 C         141.4906  141.7221  166.7456 C.ar    1  UNL1        0.1777
     15 C         140.4116  141.4404  165.7424 C.ar    1  UNL1        0.0333
     16 C         139.3068  140.4830  166.0782 C.ar    1  UNL1       -0.0188
     17 C         138.2277  140.2013  165.0750 C.3     1  UNL1        0.0311
     18 C         139.2809  139.8073  167.4172 C.ar    1  UNL1       -0.0040
     19 C         140.3600  140.0890  168.4203 C.ar    1  UNL1        0.0057
     20 C         141.4648  141.0464  168.0845 C.ar    1  UNL1        0.0717
     21 C         141.9976  141.1580  171.3520 C.3     1  UNL1        0.1097
     22 N         143.0211  141.0965  170.2571 N.pl3   1  UNL1       -0.3140
     23 H         143.9324  140.7794  170.4525 H       1  UNL1        0.1483
     24 N         141.1450  143.4559  159.2117 N.pl3   1  UNL1       -0.2884
     25 C         142.6085  143.6337  158.9351 C.3     1  UNL1        0.1242
     26 C         143.2386  142.9463  157.7601 C.3     1  UNL1        0.1636
     27 O         142.4051  142.0812  156.8618 O.3     1  UNL1       -0.3502
     28 C         140.9416  141.9034  157.1384 C.3     1  UNL1        0.1618
     29 C         140.3115  142.5908  158.3134 C.3     1  UNL1        0.1039
     30 C         138.8480  142.4131  158.5900 C.3     1  UNL1        0.0241
@<TRIPOS>BOND
     1    21    22    1
     2    22    11    1
     3    11    12   ar
     4    12    13   ar
     5    13    14   ar
     6    14    15   ar
     7    15     1    1
     8     1     2   ar
     9     2     3   ar
    10     3     4   ar
    11     4     5   ar
    12     5    24    1
    13    24    25    1
    14    25    26    1
    15    26    27    1
    16    27    28    1
    17    28    29    1
    18    29    30    1
    19     5     6   ar
    20     6     7   ar
    21     7     8   ar
    22     8     9   ar
    23     9    10   ar
    24    15    16   ar
    25    16    17    1
    26    16    18   ar
    27    18    19   ar
    28    19    20   ar
    29    20    11   ar
    30    20    14   ar
    31    10     1   ar
    32     9     4   ar
    33    29    24    1
    34    22    23    1
@<TRIPOS>MOLECULE
*****
 30 34 0 0 0
SMALL
GASTEIGER

@<TRIPOS>ATOM
      1 C         140.7049  141.5772  163.8160 C.ar    1  UNL1        0.0028
      2 C         140.5531  142.4404  165.0333 C.ar    1  UNL1        0.0002
      3 C         141.1446  142.0038  166.3407 C.ar    1  UNL1        0.0029
      4 C         141.8880  140.7041  166.4309 C.ar    1  UNL1        0.0349
      5 C         142.4796  140.2676  167.7384 C.ar    1  UNL1        0.1535
      6 N         143.2229  138.9678  167.8286 N.ar    1  UNL1       -0.1329
      7 N         143.3746  138.1046  166.6112 N.ar    1  UNL1       -0.1452
      8 C         142.7831  138.5411  165.3038 C.ar    1  UNL1        0.1222
      9 C         142.0397  139.8409  165.2136 C.ar    1  UNL1        0.0237
     10 C         141.4482  140.2774  163.9062 C.ar    1  UNL1        0.0018
     11 C         141.3380  144.1515  159.5552 C.ar    1  UNL1        0.1705
     12 N         142.5588  144.2344  160.4227 N.ar    1  UNL1       -0.0621
     13 O         142.2950  143.4452  161.6707 O.2     1  UNL1       -0.3522
     14 C         140.9112  142.8745  161.5745 C.ar    1  UNL1        0.1777
     15 C         140.1133  142.0137  162.5085 C.ar    1  UNL1        0.0333
     16 C         138.7239  141.5895  162.1351 C.ar    1  UNL1       -0.0188
     17 C         137.9260  140.7287  163.0691 C.3     1  UNL1        0.0311
     18 C         138.1323  142.0260  160.8275 C.ar    1  UNL1       -0.0040
     19 C         138.9302  142.8868  159.8935 C.ar    1  UNL1        0.0057
     20 C         140.3197  143.3110  160.2670 C.ar    1  UNL1        0.0717
     21 C         141.1017  143.9481  156.9759 C.3     1  UNL1        0.1097
     22 N         141.1656  144.7959  158.2117 N.pl3   1  UNL1       -0.3140
     23 H         141.0945  145.7753  158.1410 H       1  UNL1        0.1483
     24 N         142.3278  141.1308  168.9557 N.pl3   1  UNL1       -0.2884
     25 C         143.3886  142.1335  169.3011 C.3     1  UNL1        0.1242
     26 C         143.2368  142.9967  170.5185 C.3     1  UNL1        0.1636
     27 O         142.0242  142.8572  171.3903 O.3     1  UNL1       -0.3502
     28 C         140.9634  141.8545  171.0449 C.3     1  UNL1        0.1618
     29 C         141.1152  140.9913  169.8277 C.3     1  UNL1        0.1039
     30 C         140.0544  139.9886  169.4823 C.3     1  UNL1        0.0241
@<TRIPOS>BOND
     1    21    22    1
     2    22    11    1
     3    11    12   ar
     4    12    13   ar
     5    13    14   ar
     6    14    15   ar
     7    15     1    1
     8     1     2   ar
     9     2     3   ar
    10     3     4   ar
    11     4     5   ar
    12     5    24    1
    13    24    25    1
    14    25    26    1
    15    26    27    1
    16    27    28    1
    17    28    29    1
    18    29    30    1
    19     5     6   ar
    20     6     7   ar
    21     7     8   ar
    22     8     9   ar
    23     9    10   ar
    24    15    16   ar
    25    16    17    1
    26    16    18   ar
    27    18    19   ar
    28    19    20   ar
    29    20    11   ar
    30    20    14   ar
    31    10     1   ar
    32     9     4   ar
    33    29    24    1
    34    22    23    1
@<TRIPOS>MOLECULE
*****
 30 34 0 0 0
SMALL
GASTEIGER

@<TRIPOS>ATOM
      1 C         141.4010  139.5541  163.8927 C.ar    1  UNL1        0.0028
      2 C         142.0953  140.5267  164.7993 C.ar    1  UNL1        0.0002
      3 C         141.5630  140.7772  166.1791 C.ar    1  UNL1        0.0029
      4 C         140.3365  140.0550  166.6523 C.ar    1  UNL1        0.0349
      5 C         139.8042  140.3055  168.0322 C.ar    1  UNL1        0.1535
      6 N         138.5776  139.5833  168.5055 N.ar    1  UNL1       -0.1329
      7 N         137.8833  138.6106  167.5988 N.ar    1  UNL1       -0.1452
      8 C         138.4156  138.3601  166.2190 C.ar    1  UNL1        0.1222
      9 C         139.6422  139.0823  165.7458 C.ar    1  UNL1        0.0237
     10 C         140.1745  138.8319  164.3660 C.ar    1  UNL1        0.0018
     11 C         140.3864  139.1449  158.9952 C.ar    1  UNL1        0.1705
     12 N         139.1440  139.4428  159.7810 N.ar    1  UNL1       -0.0621
     13 O         139.5252  139.5502  161.2278 O.2     1  UNL1       -0.3522
     14 C         141.0033  139.3187  161.3361 C.ar    1  UNL1        0.1777
     15 C         141.9333  139.3036  162.5128 C.ar    1  UNL1        0.0333
     16 C         143.3956  139.0380  162.3098 C.ar    1  UNL1       -0.0188
     17 C         144.3256  139.0229  163.4866 C.3     1  UNL1        0.0311
     18 C         143.9278  138.7875  160.9299 C.ar    1  UNL1       -0.0040
     19 C         142.9978  138.8026  159.7531 C.ar    1  UNL1        0.0057
     20 C         141.5355  139.0682  159.9562 C.ar    1  UNL1        0.0717
     21 C         140.5257  137.5743  156.9304 C.3     1  UNL1        0.1097
     22 N         140.4657  138.9568  157.5092 N.pl3   1  UNL1       -0.3140
     23 H         140.4785  139.7407  156.9138 H       1  UNL1        0.1483
     24 N         140.4985  141.2781  168.9388 N.pl3   1  UNL1       -0.2884
     25 C         140.1303  142.7318  168.9021 C.3     1  UNL1        0.1242
     26 C         140.8246  143.7045  169.8087 C.3     1  UNL1        0.1636
     27 O         141.8871  143.2235  170.7519 O.3     1  UNL1       -0.3502
     28 C         142.2553  141.7698  170.7886 C.3     1  UNL1        0.1618
     29 C         141.5610  140.7972  169.8821 C.3     1  UNL1        0.1039
     30 C         141.9292  139.3435  169.9188 C.3     1  UNL1        0.0241
@<TRIPOS>BOND
     1    21    22    1
     2    22    11    1
     3    11    12   ar
     4    12    13   ar
     5    13    14   ar
     6    14    15   ar
     7    15     1    1
     8     1     2   ar
     9     2     3   ar
    10     3     4   ar
    11     4     5   ar
    12     5    24    1
    13    24    25    1
    14    25    26    1
    15    26    27    1
    16    27    28    1
    17    28    29    1
    18    29    30    1
    19     5     6   ar
    20     6     7   ar
    21     7     8   ar
    22     8     9   ar
    23     9    10   ar
    24    15    16   ar
    25    16    17    1
    26    16    18   ar
    27    18    19   ar
    28    19    20   ar
    29    20    11   ar
    30    20    14   ar
    31    10     1   ar
    32     9     4   ar
    33    29    24    1
    34    22    23    1
@<TRIPOS>MOLECULE
*****
 30 34 0 0 0
SMALL
GASTEIGER

@<TRIPOS>ATOM
      1 C         141.5728  141.4645  166.6735 C.ar    1  UNL1        0.0028
      2 C         140.6620  142.2914  165.8153 C.ar    1  UNL1        0.0002
      3 C         140.9910  142.5128  164.3687 C.ar    1  UNL1        0.0029
      4 C         142.2308  141.9073  163.7803 C.ar    1  UNL1        0.0349
      5 C         142.5598  142.1287  162.3336 C.ar    1  UNL1        0.1535
      6 N         143.7996  141.5232  161.7452 N.ar    1  UNL1       -0.1329
      7 N         144.7104  140.6962  162.6035 N.ar    1  UNL1       -0.1452
      8 C         144.3815  140.4749  164.0501 C.ar    1  UNL1        0.1222
      9 C         143.1416  141.0804  164.6385 C.ar    1  UNL1        0.0237
     10 C         142.8126  140.8590  166.0851 C.ar    1  UNL1        0.0018
     11 C         138.3823  139.5103  170.0178 C.ar    1  UNL1        0.1705
     12 N         137.9153  139.2585  168.6148 N.ar    1  UNL1       -0.0621
     13 O         138.9146  139.8686  167.6771 O.2     1  UNL1       -0.3522
     14 C         139.9992  140.4975  168.5007 C.ar    1  UNL1        0.1777
     15 C         141.2439  141.2431  168.1202 C.ar    1  UNL1        0.0333
     16 C         142.1596  141.7673  169.1863 C.ar    1  UNL1       -0.0188
     17 C         143.4042  142.5130  168.8058 C.3     1  UNL1        0.0311
     18 C         141.8306  141.5459  170.6330 C.ar    1  UNL1       -0.0040
     19 C         140.5859  140.8003  171.0135 C.ar    1  UNL1        0.0057
     20 C         139.6702  140.2760  169.9473 C.ar    1  UNL1        0.0717
     21 C         136.2368  138.6813  171.2259 C.3     1  UNL1        0.1097
     22 N         137.6840  139.0732  171.2712 N.pl3   1  UNL1       -0.3140
     23 H         138.1755  139.0435  172.1238 H       1  UNL1        0.1483
     24 N         141.6490  142.9556  161.4754 N.pl3   1  UNL1       -0.2884
     25 C         141.8581  144.4372  161.3702 C.3     1  UNL1        0.1242
     26 C         140.9472  145.2642  160.5119 C.3     1  UNL1        0.1636
     27 O         139.8273  144.6094  159.7589 O.3     1  UNL1       -0.3502
     28 C         139.6182  143.1278  159.8641 C.3     1  UNL1        0.1618
     29 C         140.5290  142.3009  160.7223 C.3     1  UNL1        0.1039
     30 C         140.3199  140.8193  160.8275 C.3     1  UNL1        0.0241
@<TRIPOS>BOND
     1    21    22    1
     2    22    11    1
     3    11    12   ar
     4    12    13   ar
     5    13    14   ar
     6    14    15   ar
     7    15     1    1
     8     1     2   ar
     9     2     3   ar
    10     3     4   ar
    11     4     5   ar
    12     5    24    1
    13    24    25    1
    14    25    26    1
    15    26    27    1
    16    27    28    1
    17    28    29    1
    18    29    30    1
    19     5     6   ar
    20     6     7   ar
    21     7     8   ar
    22     8     9   ar
    23     9    10   ar
    24    15    16   ar
    25    16    17    1
    26    16    18   ar
    27    18    19   ar
    28    19    20   ar
    29    20    11   ar
    30    20    14   ar
    31    10     1   ar
    32     9     4   ar
    33    29    24    1
    34    22    23    1
