@<TRIPOS>MOLECULE
*****
 42 47 0 0 0
SMALL
GASTEIGER

@<TRIPOS>ATOM
      1 N         140.2619  138.7138  160.7640 N.3     1  UNL1       -0.2688
      2 C         139.9347  139.5144  159.5384 C.3     1  UNL1        0.0741
      3 C         141.0216  140.2468  158.8087 C.3     1  UNL1        0.0372
      4 C         142.4356  140.1785  159.3046 C.3     1  UNL1        0.0799
      5 C         142.7628  139.3778  160.5302 C.3     1  UNL1        0.0372
      6 C         141.6759  138.6455  161.2598 C.3     1  UNL1        0.0741
      7 N         143.5225  140.9108  158.5749 N.am    1  UNL1       -0.2618
      8 C         144.1756  140.4742  157.2971 C.2     1  UNL1        0.3074
      9 O         143.8566  139.2286  156.5246 O.2     1  UNL1       -0.2523
     10 N         145.2038  141.5019  156.9274 N.am    1  UNL1       -0.2635
     11 C         145.1862  142.5736  157.9767 C.3     1  UNL1        0.1192
     12 C         144.1471  142.2083  158.9949 C.3     1  UNL1        0.1191
     13 C         146.0935  141.4643  155.7203 C.3     1  UNL1        0.0819
     14 C         145.5431  141.0229  154.3965 C.3     1  UNL1        0.0520
     15 C         146.4328  140.9854  153.1894 C.3     1  UNL1        0.1439
     16 O         147.8727  141.3893  153.3061 O.3     1  UNL1       -0.3537
     17 C         148.4229  141.8307  154.6298 C.3     1  UNL1        0.1439
     18 C         147.5333  141.8682  155.8369 C.3     1  UNL1        0.0520
     19 C         143.7944  143.0013  160.2184 C.ar    1  UNL1       -0.0026
     20 C         144.7392  143.0436  161.3828 C.ar    1  UNL1       -0.0026
     21 C         144.3866  143.8366  162.6063 C.ar    1  UNL1       -0.0003
     22 C         143.0893  144.5873  162.6654 C.ar    1  UNL1       -0.0000
     23 C         142.1446  144.5449  161.5010 C.ar    1  UNL1       -0.0003
     24 C         142.4972  143.7520  160.2776 C.ar    1  UNL1       -0.0026
     25 C         139.1750  137.9815  161.4937 C.3     1  UNL1        0.1003
     26 C         137.6919  140.3981  162.4735 C.3     1  UNL1        0.0519
     27 C         138.2409  139.4059  163.4554 C.ar    1  UNL1        0.0598
     28 N         138.0483  139.6220  164.9272 N.ar    1  UNL1       -0.2160
     29 C         138.5974  138.6299  165.9091 C.ar    1  UNL1        0.2293
     30 C         139.3389  137.4215  165.4192 C.ar    1  UNL1        0.0578
     31 C         139.5315  137.2054  163.9474 C.ar    1  UNL1        0.0031
     32 C         138.9825  138.1976  162.9655 C.ar    1  UNL1        0.0077
     33 O         138.4048  138.8460  167.3809 O.3     1  UNL1       -0.4361
     34 C         139.0486  140.0200  168.0571 C.ar    1  UNL1        0.1472
     35 C         138.8356  140.2503  169.5240 C.ar    1  UNL1        0.0376
     36 C         139.4793  141.4243  170.2002 C.ar    1  UNL1        0.0043
     37 C         140.3361  142.3681  169.4094 C.ar    1  UNL1        0.0142
     38 C         140.5491  142.1379  167.9426 C.ar    1  UNL1        0.0043
     39 C         139.9053  140.9638  167.2664 C.ar    1  UNL1        0.0376
     40 C         140.9799  143.5421  170.0856 C.2     1  UNL1        0.0729
     41 O         142.4090  143.4588  170.5335 O.co2   1  UNL1       -0.5446
     42 O         140.1945  144.7996  170.3138 O.co2   1  UNL1       -0.5446
@<TRIPOS>UNITY_ATOM_ATTR
41 1
charge -1
@<TRIPOS>BOND
     1    26    27    1
     2    27    28   ar
     3    28    29   ar
     4    29    33    1
     5    33    34    1
     6    34    35   ar
     7    35    36   ar
     8    36    37   ar
     9    37    40    1
    10    40    41   ar
    11    40    42   ar
    12    37    38   ar
    13    38    39   ar
    14    29    30   ar
    15    30    31   ar
    16    31    32   ar
    17    32    25    1
    18    25     1    1
    19     1     2    1
    20     2     3    1
    21     3     4    1
    22     4     7    1
    23     7     8   am
    24     8     9    2
    25     8    10   am
    26    10    13    1
    27    13    14    1
    28    14    15    1
    29    15    16    1
    30    16    17    1
    31    17    18    1
    32    10    11    1
    33    11    12    1
    34    12    19    1
    35    19    20   ar
    36    20    21   ar
    37    21    22   ar
    38    22    23   ar
    39    23    24   ar
    40     4     5    1
    41     5     6    1
    42    32    27   ar
    43     6     1    1
    44    39    34   ar
    45    12     7    1
    46    24    19   ar
    47    18    13    1
@<TRIPOS>MOLECULE
*****
 42 47 0 0 0
SMALL
GASTEIGER

@<TRIPOS>ATOM
      1 N         143.5780  141.9098  161.1177 N.3     1  UNL1       -0.2688
      2 C         144.0006  140.8392  162.0796 C.3     1  UNL1        0.0741
      3 C         143.2240  140.6175  163.3436 C.3     1  UNL1        0.0372
      4 C         142.0247  141.4664  163.6457 C.3     1  UNL1        0.0799
      5 C         141.6022  142.5370  162.6839 C.3     1  UNL1        0.0372
      6 C         142.3788  142.7587  161.4199 C.3     1  UNL1        0.0741
      7 N         141.2481  141.2447  164.9097 N.am    1  UNL1       -0.2618
      8 C         141.6227  141.7437  166.2738 C.2     1  UNL1        0.3074
      9 O         142.8398  142.5521  166.6133 O.2     1  UNL1       -0.2523
     10 N         140.5666  141.2925  167.2387 N.am    1  UNL1       -0.2635
     11 C         139.5393  140.5146  166.4710 C.3     1  UNL1        0.1192
     12 C         139.9605  140.4850  165.0316 C.3     1  UNL1        0.1191
     13 C         140.5422  141.5704  168.7125 C.3     1  UNL1        0.0819
     14 C         140.7448  140.4509  169.6902 C.3     1  UNL1        0.0520
     15 C         140.7204  140.7288  171.1640 C.3     1  UNL1        0.1439
     16 O         140.4934  142.1261  171.6601 O.3     1  UNL1       -0.3537
     17 C         140.2908  143.2455  170.6824 C.3     1  UNL1        0.1439
     18 C         140.3153  142.9676  169.2086 C.3     1  UNL1        0.0520
     19 C         139.2234  139.8137  163.9109 C.ar    1  UNL1       -0.0026
     20 C         139.2591  138.3199  163.7784 C.ar    1  UNL1       -0.0026
     21 C         138.5220  137.6485  162.6577 C.ar    1  UNL1       -0.0003
     22 C         137.7492  138.4708  161.6696 C.ar    1  UNL1       -0.0000
     23 C         137.7134  139.9645  161.8021 C.ar    1  UNL1       -0.0003
     24 C         138.4505  140.6359  162.9227 C.ar    1  UNL1       -0.0026
     25 C         144.3546  142.1316  159.8537 C.3     1  UNL1        0.1003
     26 C         146.0179  142.4711  157.3802 C.3     1  UNL1        0.0519
     27 C         144.9469  141.4219  157.4256 C.ar    1  UNL1        0.0598
     28 N         144.7075  140.5424  156.2343 N.ar    1  UNL1       -0.2160
     29 C         143.6364  139.4932  156.2798 C.ar    1  UNL1        0.2293
     30 C         142.8048  139.3234  157.5165 C.ar    1  UNL1        0.0578
     31 C         143.0442  140.2029  158.7078 C.ar    1  UNL1        0.0031
     32 C         144.1152  141.2521  158.6624 C.ar    1  UNL1        0.0077
     33 O         143.3971  138.6137  155.0884 O.3     1  UNL1       -0.4361
     34 C         143.0279  137.1728  155.2820 C.ar    1  UNL1        0.1472
     35 C         144.0686  136.1838  155.7166 C.ar    1  UNL1        0.0376
     36 C         143.6993  134.7429  155.9102 C.ar    1  UNL1        0.0043
     37 C         142.2894  134.2910  155.6691 C.ar    1  UNL1        0.0142
     38 C         141.2488  135.2800  155.2345 C.ar    1  UNL1        0.0043
     39 C         141.6180  136.7209  155.0410 C.ar    1  UNL1        0.0376
     40 C         141.9202  132.8501  155.8627 C.2     1  UNL1        0.0729
     41 O         142.5610  132.0525  156.9596 O.co2   1  UNL1       -0.5446
     42 O         140.9101  132.2068  154.9594 O.co2   1  UNL1       -0.5446
@<TRIPOS>UNITY_ATOM_ATTR
41 1
charge -1
@<TRIPOS>BOND
     1    26    27    1
     2    27    28   ar
     3    28    29   ar
     4    29    33    1
     5    33    34    1
     6    34    35   ar
     7    35    36   ar
     8    36    37   ar
     9    37    40    1
    10    40    41   ar
    11    40    42   ar
    12    37    38   ar
    13    38    39   ar
    14    29    30   ar
    15    30    31   ar
    16    31    32   ar
    17    32    25    1
    18    25     1    1
    19     1     2    1
    20     2     3    1
    21     3     4    1
    22     4     7    1
    23     7     8   am
    24     8     9    2
    25     8    10   am
    26    10    13    1
    27    13    14    1
    28    14    15    1
    29    15    16    1
    30    16    17    1
    31    17    18    1
    32    10    11    1
    33    11    12    1
    34    12    19    1
    35    19    20   ar
    36    20    21   ar
    37    21    22   ar
    38    22    23   ar
    39    23    24   ar
    40     4     5    1
    41     5     6    1
    42    32    27   ar
    43     6     1    1
    44    39    34   ar
    45    12     7    1
    46    24    19   ar
    47    18    13    1
@<TRIPOS>MOLECULE
*****
 42 47 0 0 0
SMALL
GASTEIGER

@<TRIPOS>ATOM
      1 N         143.3104  139.9825  160.6820 N.3     1  UNL1       -0.2688
      2 C         142.2812  139.7400  159.6180 C.3     1  UNL1        0.0741
      3 C         141.7063  140.8953  158.8534 C.3     1  UNL1        0.0372
      4 C         142.1606  142.2932  159.1529 C.3     1  UNL1        0.0799
      5 C         143.1897  142.5357  160.2169 C.3     1  UNL1        0.0372
      6 C         143.7646  141.3803  160.9815 C.3     1  UNL1        0.0741
      7 N         141.5857  143.4486  158.3883 N.am    1  UNL1       -0.2618
      8 C         141.9516  143.8501  156.9902 C.2     1  UNL1        0.3074
      9 O         142.9566  143.1668  156.1110 O.2     1  UNL1       -0.2523
     10 N         141.1359  145.0550  156.6254 N.am    1  UNL1       -0.2635
     11 C         140.2659  145.3982  157.7981 C.3     1  UNL1        0.1192
     12 C         140.5439  144.4054  158.8877 C.3     1  UNL1        0.1191
     13 C         141.1822  145.7880  155.3175 C.3     1  UNL1        0.0819
     14 C         142.0673  145.2939  154.2118 C.3     1  UNL1        0.0520
     15 C         142.1136  146.0269  152.9040 C.3     1  UNL1        0.1439
     16 O         141.2749  147.2539  152.7018 O.3     1  UNL1       -0.3537
     17 C         140.3898  147.7480  153.8074 C.3     1  UNL1        0.1439
     18 C         140.3435  147.0150  155.1153 C.3     1  UNL1        0.0520
     19 C         139.8941  144.3747  160.2393 C.ar    1  UNL1       -0.0026
     20 C         139.0065  143.2266  160.6189 C.ar    1  UNL1       -0.0026
     21 C         138.3567  143.1959  161.9705 C.ar    1  UNL1       -0.0003
     22 C         138.5945  144.3133  162.9425 C.ar    1  UNL1       -0.0000
     23 C         139.4821  145.4614  162.5629 C.ar    1  UNL1       -0.0003
     24 C         140.1318  145.4921  161.2114 C.ar    1  UNL1       -0.0026
     25 C         143.8853  138.8271  161.4466 C.3     1  UNL1        0.1003
     26 C         141.4283  137.6292  162.6829 C.3     1  UNL1        0.0519
     27 C         142.5187  138.1735  163.5574 C.ar    1  UNL1        0.0598
     28 N         142.3806  138.1189  165.0500 N.ar    1  UNL1       -0.2160
     29 C         143.4710  138.6632  165.9245 C.ar    1  UNL1        0.2293
     30 C         144.6995  139.2621  165.3064 C.ar    1  UNL1        0.0578
     31 C         144.8376  139.3167  163.8138 C.ar    1  UNL1        0.0031
     32 C         143.7472  138.7724  162.9393 C.ar    1  UNL1        0.0077
     33 O         143.3329  138.6085  167.4172 O.3     1  UNL1       -0.4361
     34 C         142.5892  139.6911  168.1417 C.ar    1  UNL1        0.1472
     35 C         142.1931  139.4985  169.5756 C.ar    1  UNL1        0.0376
     36 C         141.4494  140.5811  170.3001 C.ar    1  UNL1        0.0043
     37 C         141.1018  141.8563  169.5907 C.ar    1  UNL1        0.0142
     38 C         141.4979  142.0488  168.1568 C.ar    1  UNL1        0.0043
     39 C         142.2416  140.9662  167.4323 C.ar    1  UNL1        0.0376
     40 C         140.3581  142.9389  170.3152 C.2     1  UNL1        0.0729
     41 O         140.8661  144.3498  170.2811 O.co2   1  UNL1       -0.5446
     42 O         139.1063  142.6105  171.0737 O.co2   1  UNL1       -0.5446
@<TRIPOS>UNITY_ATOM_ATTR
41 1
charge -1
@<TRIPOS>BOND
     1    26    27    1
     2    27    28   ar
     3    28    29   ar
     4    29    33    1
     5    33    34    1
     6    34    35   ar
     7    35    36   ar
     8    36    37   ar
     9    37    40    1
    10    40    41   ar
    11    40    42   ar
    12    37    38   ar
    13    38    39   ar
    14    29    30   ar
    15    30    31   ar
    16    31    32   ar
    17    32    25    1
    18    25     1    1
    19     1     2    1
    20     2     3    1
    21     3     4    1
    22     4     7    1
    23     7     8   am
    24     8     9    2
    25     8    10   am
    26    10    13    1
    27    13    14    1
    28    14    15    1
    29    15    16    1
    30    16    17    1
    31    17    18    1
    32    10    11    1
    33    11    12    1
    34    12    19    1
    35    19    20   ar
    36    20    21   ar
    37    21    22   ar
    38    22    23   ar
    39    23    24   ar
    40     4     5    1
    41     5     6    1
    42    32    27   ar
    43     6     1    1
    44    39    34   ar
    45    12     7    1
    46    24    19   ar
    47    18    13    1
@<TRIPOS>MOLECULE
*****
 42 47 0 0 0
SMALL
GASTEIGER

@<TRIPOS>ATOM
      1 N         142.7433  142.9357  159.8083 N.3     1  UNL1       -0.2688
      2 C         141.4675  143.4747  160.3844 C.3     1  UNL1        0.0741
      3 C         141.0895  143.1540  161.8002 C.3     1  UNL1        0.0372
      4 C         141.9874  142.2944  162.6398 C.3     1  UNL1        0.0799
      5 C         143.2632  141.7555  162.0637 C.3     1  UNL1        0.0372
      6 C         143.6412  142.0762  160.6480 C.3     1  UNL1        0.0741
      7 N         141.6095  141.9738  164.0556 N.am    1  UNL1       -0.2618
      8 C         142.1463  142.6448  165.2850 C.2     1  UNL1        0.3074
      9 O         143.1554  143.7543  165.3146 O.2     1  UNL1       -0.2523
     10 N         141.4970  142.0115  166.4798 N.am    1  UNL1       -0.2635
     11 C         140.5588  140.9491  165.9887 C.3     1  UNL1        0.1192
     12 C         140.6284  140.9258  164.4905 C.3     1  UNL1        0.1191
     13 C         141.7427  142.3766  167.9138 C.3     1  UNL1        0.0819
     14 C         143.1071  142.1963  168.5103 C.3     1  UNL1        0.0520
     15 C         143.3528  142.5613  169.9443 C.3     1  UNL1        0.1439
     16 O         142.2341  143.1067  170.7817 O.3     1  UNL1       -0.3537
     17 C         140.8698  143.2870  170.1851 C.3     1  UNL1        0.1439
     18 C         140.6241  142.9219  168.7511 C.3     1  UNL1        0.0520
     19 C         139.8529  140.0145  163.5860 C.ar    1  UNL1       -0.0026
     20 C         140.3396  138.6186  163.3313 C.ar    1  UNL1       -0.0026
     21 C         139.5641  137.7073  162.4268 C.ar    1  UNL1       -0.0003
     22 C         138.3020  138.1918  161.7769 C.ar    1  UNL1       -0.0000
     23 C         137.8153  139.5876  162.0316 C.ar    1  UNL1       -0.0003
     24 C         138.5907  140.4989  162.9361 C.ar    1  UNL1       -0.0026
     25 C         143.1213  143.2564  158.3926 C.3     1  UNL1        0.1003
     26 C         141.1892  141.7420  156.6680 C.3     1  UNL1        0.0519
     27 C         141.1962  143.2419  156.6479 C.ar    1  UNL1        0.0598
     28 N         140.2372  143.9846  155.7655 N.ar    1  UNL1       -0.2160
     29 C         140.2442  145.4844  155.7453 C.ar    1  UNL1        0.2293
     30 C         141.2102  146.2416  156.6076 C.ar    1  UNL1        0.0578
     31 C         142.1692  145.4989  157.4900 C.ar    1  UNL1        0.0031
     32 C         142.1622  143.9991  157.5101 C.ar    1  UNL1        0.0077
     33 O         139.2851  146.2271  154.8629 O.3     1  UNL1       -0.4361
     34 C         139.3328  147.7249  154.7967 C.ar    1  UNL1        0.1472
     35 C         138.5816  148.5444  155.8038 C.ar    1  UNL1        0.0376
     36 C         138.6294  150.0422  155.7376 C.ar    1  UNL1        0.0043
     37 C         139.4282  150.7204  154.6644 C.ar    1  UNL1        0.0142
     38 C         140.1793  149.9009  153.6573 C.ar    1  UNL1        0.0043
     39 C         140.1316  148.4031  153.7235 C.ar    1  UNL1        0.0376
     40 C         139.4760  152.2182  154.5982 C.2     1  UNL1        0.0729
     41 O         138.2349  153.0203  154.8558 O.co2   1  UNL1       -0.5446
     42 O         140.7649  152.9140  154.2744 O.co2   1  UNL1       -0.5446
@<TRIPOS>UNITY_ATOM_ATTR
41 1
charge -1
@<TRIPOS>BOND
     1    26    27    1
     2    27    28   ar
     3    28    29   ar
     4    29    33    1
     5    33    34    1
     6    34    35   ar
     7    35    36   ar
     8    36    37   ar
     9    37    40    1
    10    40    41   ar
    11    40    42   ar
    12    37    38   ar
    13    38    39   ar
    14    29    30   ar
    15    30    31   ar
    16    31    32   ar
    17    32    25    1
    18    25     1    1
    19     1     2    1
    20     2     3    1
    21     3     4    1
    22     4     7    1
    23     7     8   am
    24     8     9    2
    25     8    10   am
    26    10    13    1
    27    13    14    1
    28    14    15    1
    29    15    16    1
    30    16    17    1
    31    17    18    1
    32    10    11    1
    33    11    12    1
    34    12    19    1
    35    19    20   ar
    36    20    21   ar
    37    21    22   ar
    38    22    23   ar
    39    23    24   ar
    40     4     5    1
    41     5     6    1
    42    32    27   ar
    43     6     1    1
    44    39    34   ar
    45    12     7    1
    46    24    19   ar
    47    18    13    1
@<TRIPOS>MOLECULE
*****
 42 47 0 0 0
SMALL
GASTEIGER

@<TRIPOS>ATOM
      1 N         142.5738  139.7666  160.9566 N.3     1  UNL1       -0.2688
      2 C         143.5955  140.0219  162.0248 C.3     1  UNL1        0.0741
      3 C         143.1704  140.5782  163.3515 C.3     1  UNL1        0.0372
      4 C         141.7238  140.8791  163.6098 C.3     1  UNL1        0.0799
      5 C         140.7022  140.6238  162.5416 C.3     1  UNL1        0.0372
      6 C         141.1272  140.0675  161.2149 C.3     1  UNL1        0.0741
      7 N         141.2988  141.4353  164.9365 N.am    1  UNL1       -0.2618
      8 C         141.4409  140.7533  166.2649 C.2     1  UNL1        0.3074
      9 O         142.0331  139.3953  166.4999 O.2     1  UNL1       -0.2523
     10 N         140.8870  141.6677  167.3170 N.am    1  UNL1       -0.2635
     11 C         140.4024  142.9148  166.6389 C.3     1  UNL1        0.1192
     12 C         140.6569  142.7712  165.1677 C.3     1  UNL1        0.1191
     13 C         140.8280  141.3846  168.7889 C.3     1  UNL1        0.0819
     14 C         139.9906  140.2505  169.3014 C.3     1  UNL1        0.0520
     15 C         139.9316  139.9674  170.7733 C.3     1  UNL1        0.1439
     16 O         140.7099  140.8184  171.7325 O.3     1  UNL1       -0.3537
     17 C         141.5471  141.9525  171.2199 C.3     1  UNL1        0.1439
     18 C         141.6062  142.2356  169.7481 C.3     1  UNL1        0.0520
     19 C         140.3274  143.7854  164.1128 C.ar    1  UNL1       -0.0026
     20 C         141.4283  144.5394  163.4273 C.ar    1  UNL1       -0.0026
     21 C         141.0988  145.5536  162.3724 C.ar    1  UNL1       -0.0003
     22 C         139.6685  145.8139  162.0030 C.ar    1  UNL1       -0.0000
     23 C         138.5677  145.0600  162.6884 C.ar    1  UNL1       -0.0003
     24 C         138.8972  144.0458  163.7432 C.ar    1  UNL1       -0.0026
     25 C         142.9988  139.2104  159.6299 C.3     1  UNL1        0.1003
     26 C         143.0614  138.3399  156.7596 C.3     1  UNL1        0.0519
     27 C         143.5985  139.6858  157.1471 C.ar    1  UNL1        0.0598
     28 N         144.1669  140.5965  156.0994 N.ar    1  UNL1       -0.2160
     29 C         144.7040  141.9424  156.4869 C.ar    1  UNL1        0.2293
     30 C         144.6727  142.3776  157.9220 C.ar    1  UNL1        0.0578
     31 C         144.1043  141.4670  158.9696 C.ar    1  UNL1        0.0031
     32 C         143.5672  140.1211  158.5822 C.ar    1  UNL1        0.0077
     33 O         145.2724  142.8531  155.4392 O.3     1  UNL1       -0.4361
     34 C         146.7024  142.7040  155.0116 C.ar    1  UNL1        0.1472
     35 C         147.6573  141.9086  155.8517 C.ar    1  UNL1        0.0376
     36 C         149.0874  141.7595  155.4241 C.ar    1  UNL1        0.0043
     37 C         149.5625  142.4058  154.1566 C.ar    1  UNL1        0.0142
     38 C         148.6076  143.2012  153.3167 C.ar    1  UNL1        0.0043
     39 C         147.1776  143.3503  153.7442 C.ar    1  UNL1        0.0376
     40 C         150.9925  142.2568  153.7291 C.2     1  UNL1        0.0729
     41 O         151.3171  141.8879  152.3119 O.co2   1  UNL1       -0.5446
     42 O         152.0980  142.4766  154.7189 O.co2   1  UNL1       -0.5446
@<TRIPOS>UNITY_ATOM_ATTR
41 1
charge -1
@<TRIPOS>BOND
     1    26    27    1
     2    27    28   ar
     3    28    29   ar
     4    29    33    1
     5    33    34    1
     6    34    35   ar
     7    35    36   ar
     8    36    37   ar
     9    37    40    1
    10    40    41   ar
    11    40    42   ar
    12    37    38   ar
    13    38    39   ar
    14    29    30   ar
    15    30    31   ar
    16    31    32   ar
    17    32    25    1
    18    25     1    1
    19     1     2    1
    20     2     3    1
    21     3     4    1
    22     4     7    1
    23     7     8   am
    24     8     9    2
    25     8    10   am
    26    10    13    1
    27    13    14    1
    28    14    15    1
    29    15    16    1
    30    16    17    1
    31    17    18    1
    32    10    11    1
    33    11    12    1
    34    12    19    1
    35    19    20   ar
    36    20    21   ar
    37    21    22   ar
    38    22    23   ar
    39    23    24   ar
    40     4     5    1
    41     5     6    1
    42    32    27   ar
    43     6     1    1
    44    39    34   ar
    45    12     7    1
    46    24    19   ar
    47    18    13    1
@<TRIPOS>MOLECULE
*****
 42 47 0 0 0
SMALL
GASTEIGER

@<TRIPOS>ATOM
      1 N         140.9652  138.7041  159.9838 N.3     1  UNL1       -0.2688
      2 C         140.3442  139.1182  158.6827 C.3     1  UNL1        0.0741
      3 C         141.2155  139.4445  157.5061 C.3     1  UNL1        0.0372
      4 C         142.7078  139.3566  157.6306 C.3     1  UNL1        0.0799
      5 C         143.3287  138.9425  158.9318 C.3     1  UNL1        0.0372
      6 C         142.4574  138.6163  160.1084 C.3     1  UNL1        0.0741
      7 N         143.5791  139.6829  156.4540 N.am    1  UNL1       -0.2618
      8 C         144.3087  140.9738  156.2282 C.2     1  UNL1        0.3074
      9 O         144.2952  142.1653  157.1394 O.2     1  UNL1       -0.2523
     10 N         145.0544  140.8643  154.9313 N.am    1  UNL1       -0.2635
     11 C         144.7855  139.5055  154.3555 C.3     1  UNL1        0.1192
     12 C         143.8738  138.7754  155.2966 C.3     1  UNL1        0.1191
     13 C         145.9172  141.9269  154.3179 C.3     1  UNL1        0.0819
     14 C         147.3023  141.5907  153.8501 C.3     1  UNL1        0.0520
     15 C         148.1652  142.6533  153.2367 C.3     1  UNL1        0.1439
     16 O         147.6431  144.0520  153.0911 O.3     1  UNL1       -0.3537
     17 C         146.2581  144.3880  153.5589 C.3     1  UNL1        0.1439
     18 C         145.3952  143.3254  154.1723 C.3     1  UNL1        0.0520
     19 C         143.3489  137.3823  155.1125 C.ar    1  UNL1       -0.0026
     20 C         142.0747  137.1550  154.3543 C.ar    1  UNL1       -0.0026
     21 C         141.5498  135.7619  154.1702 C.ar    1  UNL1       -0.0003
     22 C         142.2990  134.5962  154.7444 C.ar    1  UNL1       -0.0000
     23 C         143.5732  134.8235  155.5026 C.ar    1  UNL1       -0.0003
     24 C         144.0981  136.2165  155.6866 C.ar    1  UNL1       -0.0026
     25 C         140.0939  138.3779  161.1604 C.3     1  UNL1        0.1003
     26 C         140.3191  141.1056  162.3888 C.3     1  UNL1        0.0519
     27 C         140.7399  139.8950  163.1682 C.ar    1  UNL1        0.0598
     28 N         141.2732  140.0483  164.5618 N.ar    1  UNL1       -0.2160
     29 C         141.6939  138.8377  165.3412 C.ar    1  UNL1        0.2293
     30 C         141.5813  137.4739  164.7270 C.ar    1  UNL1        0.0578
     31 C         141.0480  137.3206  163.3335 C.ar    1  UNL1        0.0031
     32 C         140.6273  138.5312  162.5541 C.ar    1  UNL1        0.0077
     33 O         142.2273  138.9910  166.7348 O.3     1  UNL1       -0.4361
     34 C         141.6930  140.0714  167.6277 C.ar    1  UNL1        0.1472
     35 C         142.5209  141.2905  167.9078 C.ar    1  UNL1        0.0376
     36 C         141.9866  142.3709  168.8007 C.ar    1  UNL1        0.0043
     37 C         140.6244  142.2322  169.4134 C.ar    1  UNL1        0.0142
     38 C         139.7966  141.0131  169.1332 C.ar    1  UNL1        0.0043
     39 C         140.3309  139.9327  168.2403 C.ar    1  UNL1        0.0376
     40 C         140.0901  143.3126  170.3063 C.2     1  UNL1        0.0729
     41 O         140.2732  144.7536  169.9322 O.co2   1  UNL1       -0.5446
     42 O         139.3727  142.9520  171.5734 O.co2   1  UNL1       -0.5446
@<TRIPOS>UNITY_ATOM_ATTR
41 1
charge -1
@<TRIPOS>BOND
     1    26    27    1
     2    27    28   ar
     3    28    29   ar
     4    29    33    1
     5    33    34    1
     6    34    35   ar
     7    35    36   ar
     8    36    37   ar
     9    37    40    1
    10    40    41   ar
    11    40    42   ar
    12    37    38   ar
    13    38    39   ar
    14    29    30   ar
    15    30    31   ar
    16    31    32   ar
    17    32    25    1
    18    25     1    1
    19     1     2    1
    20     2     3    1
    21     3     4    1
    22     4     7    1
    23     7     8   am
    24     8     9    2
    25     8    10   am
    26    10    13    1
    27    13    14    1
    28    14    15    1
    29    15    16    1
    30    16    17    1
    31    17    18    1
    32    10    11    1
    33    11    12    1
    34    12    19    1
    35    19    20   ar
    36    20    21   ar
    37    21    22   ar
    38    22    23   ar
    39    23    24   ar
    40     4     5    1
    41     5     6    1
    42    32    27   ar
    43     6     1    1
    44    39    34   ar
    45    12     7    1
    46    24    19   ar
    47    18    13    1
@<TRIPOS>MOLECULE
*****
 42 47 0 0 0
SMALL
GASTEIGER

@<TRIPOS>ATOM
      1 N         140.9830  139.4599  159.3505 N.3     1  UNL1       -0.2688
      2 C         139.8245  138.7232  158.7460 C.3     1  UNL1        0.0741
      3 C         140.0674  137.6534  157.7230 C.3     1  UNL1        0.0372
      4 C         141.4689  137.3203  157.3045 C.3     1  UNL1        0.0799
      5 C         142.6273  138.0570  157.9089 C.3     1  UNL1        0.0372
      6 C         142.3843  139.1268  158.9319 C.3     1  UNL1        0.0741
      7 N         141.7119  136.2505  156.2815 N.am    1  UNL1       -0.2618
      8 C         142.5226  135.0048  156.4839 C.2     1  UNL1        0.3074
      9 O         143.2327  134.6102  157.7449 O.2     1  UNL1       -0.2523
     10 N         142.4986  134.2230  155.2040 N.am    1  UNL1       -0.2635
     11 C         141.6729  134.9854  154.2106 C.3     1  UNL1        0.1192
     12 C         141.1867  136.2385  154.8765 C.3     1  UNL1        0.1191
     13 C         143.1804  132.9093  154.9604 C.3     1  UNL1        0.0819
     14 C         142.8785  132.1270  153.7166 C.3     1  UNL1        0.0520
     15 C         143.5604  130.8133  153.4730 C.3     1  UNL1        0.1439
     16 O         144.5441  130.2820  154.4731 O.3     1  UNL1       -0.3537
     17 C         144.8459  131.0644  155.7168 C.3     1  UNL1        0.1439
     18 C         144.1640  132.3780  155.9604 C.3     1  UNL1        0.0520
     19 C         140.3264  137.2942  154.2477 C.ar    1  UNL1       -0.0026
     20 C         140.9604  138.4721  153.5689 C.ar    1  UNL1       -0.0026
     21 C         140.1001  139.5279  152.9401 C.ar    1  UNL1       -0.0003
     22 C         138.6059  139.4058  152.9902 C.ar    1  UNL1       -0.0000
     23 C         137.9720  138.2279  153.6690 C.ar    1  UNL1       -0.0003
     24 C         138.8323  137.1722  154.2978 C.ar    1  UNL1       -0.0026
     25 C         140.7400  140.5297  160.3734 C.3     1  UNL1        0.1003
     26 C         138.1890  141.5744  161.5570 C.3     1  UNL1        0.0519
     27 C         139.0785  140.6771  162.3654 C.ar    1  UNL1        0.0598
     28 N         138.6926  140.3021  163.7655 N.ar    1  UNL1       -0.2160
     29 C         139.5822  139.4048  164.5739 C.ar    1  UNL1        0.2293
     30 C         140.8577  138.8824  163.9821 C.ar    1  UNL1        0.0578
     31 C         141.2436  139.2574  162.5820 C.ar    1  UNL1        0.0031
     32 C         140.3540  140.1547  161.7736 C.ar    1  UNL1        0.0077
     33 O         139.1962  139.0298  165.9741 O.3     1  UNL1       -0.4361
     34 C         139.4603  139.9795  167.1047 C.ar    1  UNL1        0.1472
     35 C         138.9297  139.6799  168.4754 C.ar    1  UNL1        0.0376
     36 C         139.1937  140.6297  169.6060 C.ar    1  UNL1        0.0043
     37 C         139.9883  141.8791  169.3659 C.ar    1  UNL1        0.0142
     38 C         140.5189  142.1787  167.9952 C.ar    1  UNL1        0.0043
     39 C         140.2549  141.2289  166.8646 C.ar    1  UNL1        0.0376
     40 C         140.2524  142.8288  170.4964 C.2     1  UNL1        0.0729
     41 O         140.0386  144.3010  170.3047 O.co2   1  UNL1       -0.5446
     42 O         140.7303  142.3063  171.8188 O.co2   1  UNL1       -0.5446
@<TRIPOS>UNITY_ATOM_ATTR
41 1
charge -1
@<TRIPOS>BOND
     1    26    27    1
     2    27    28   ar
     3    28    29   ar
     4    29    33    1
     5    33    34    1
     6    34    35   ar
     7    35    36   ar
     8    36    37   ar
     9    37    40    1
    10    40    41   ar
    11    40    42   ar
    12    37    38   ar
    13    38    39   ar
    14    29    30   ar
    15    30    31   ar
    16    31    32   ar
    17    32    25    1
    18    25     1    1
    19     1     2    1
    20     2     3    1
    21     3     4    1
    22     4     7    1
    23     7     8   am
    24     8     9    2
    25     8    10   am
    26    10    13    1
    27    13    14    1
    28    14    15    1
    29    15    16    1
    30    16    17    1
    31    17    18    1
    32    10    11    1
    33    11    12    1
    34    12    19    1
    35    19    20   ar
    36    20    21   ar
    37    21    22   ar
    38    22    23   ar
    39    23    24   ar
    40     4     5    1
    41     5     6    1
    42    32    27   ar
    43     6     1    1
    44    39    34   ar
    45    12     7    1
    46    24    19   ar
    47    18    13    1
@<TRIPOS>MOLECULE
*****
 42 47 0 0 0
SMALL
GASTEIGER

@<TRIPOS>ATOM
      1 N         140.9983  140.1610  159.2161 N.3     1  UNL1       -0.2688
      2 C         142.3245  139.9515  158.5472 C.3     1  UNL1        0.0741
      3 C         142.5245  138.7834  157.6276 C.3     1  UNL1        0.0372
      4 C         141.3982  137.8248  157.3769 C.3     1  UNL1        0.0799
      5 C         140.0721  138.0344  158.0458 C.3     1  UNL1        0.0372
      6 C         139.8721  139.2025  158.9653 C.3     1  UNL1        0.0741
      7 N         141.5982  136.6568  156.4574 N.am    1  UNL1       -0.2618
      8 C         142.5045  135.4869  156.7022 C.2     1  UNL1        0.3074
      9 O         143.3699  135.2797  157.9097 O.2     1  UNL1       -0.2523
     10 N         142.3934  134.5605  155.5277 N.am    1  UNL1       -0.2635
     11 C         141.4184  135.1579  154.5568 C.3     1  UNL1        0.1192
     12 C         140.9270  136.4535  155.1314 C.3     1  UNL1        0.1191
     13 C         143.1282  133.2644  155.3544 C.3     1  UNL1        0.0819
     14 C         144.1949  132.8705  156.3328 C.3     1  UNL1        0.0520
     15 C         144.9298  131.5744  156.1595 C.3     1  UNL1        0.1439
     16 O         144.5980  130.6722  155.0080 O.3     1  UNL1       -0.3537
     17 C         143.5314  131.0662  154.0297 C.3     1  UNL1        0.1439
     18 C         142.7965  132.3623  154.2029 C.3     1  UNL1        0.0520
     19 C         139.9379  137.3825  154.4922 C.ar    1  UNL1       -0.0026
     20 C         140.4111  138.4469  153.5469 C.ar    1  UNL1       -0.0026
     21 C         139.4221  139.3760  152.9077 C.ar    1  UNL1       -0.0003
     22 C         137.9598  139.2408  153.2138 C.ar    1  UNL1       -0.0000
     23 C         137.4867  138.1765  154.1590 C.ar    1  UNL1       -0.0003
     24 C         138.4757  137.2475  154.7982 C.ar    1  UNL1       -0.0026
     25 C         140.7983  141.3291  160.1356 C.3     1  UNL1        0.1003
     26 C         142.2331  143.7719  161.1227 C.3     1  UNL1        0.0519
     27 C         142.1476  142.5507  161.9896 C.ar    1  UNL1        0.0598
     28 N         142.7795  142.5510  163.3499 N.ar    1  UNL1       -0.2160
     29 C         142.6940  141.3299  164.2168 C.ar    1  UNL1        0.2293
     30 C         141.9767  140.1085  163.7233 C.ar    1  UNL1        0.0578
     31 C         141.3448  140.1082  162.3630 C.ar    1  UNL1        0.0031
     32 C         141.4302  141.3294  161.4961 C.ar    1  UNL1        0.0077
     33 O         143.3260  141.3301  165.5773 O.3     1  UNL1       -0.4361
     34 C         142.5735  141.8779  166.7536 C.ar    1  UNL1        0.1472
     35 C         141.1655  142.3660  166.5820 C.ar    1  UNL1        0.0376
     36 C         140.4130  142.9138  167.7584 C.ar    1  UNL1        0.0043
     37 C         141.0686  142.9735  169.1063 C.ar    1  UNL1        0.0142
     38 C         142.4765  142.4854  169.2778 C.ar    1  UNL1        0.0043
     39 C         143.2290  141.9376  168.1015 C.ar    1  UNL1        0.0376
     40 C         140.3162  143.5212  170.2826 C.2     1  UNL1        0.0729
     41 O         139.9002  144.9622  170.3019 O.co2   1  UNL1       -0.5446
     42 O         139.9797  142.6279  171.4397 O.co2   1  UNL1       -0.5446
@<TRIPOS>UNITY_ATOM_ATTR
41 1
charge -1
@<TRIPOS>BOND
     1    26    27    1
     2    27    28   ar
     3    28    29   ar
     4    29    33    1
     5    33    34    1
     6    34    35   ar
     7    35    36   ar
     8    36    37   ar
     9    37    40    1
    10    40    41   ar
    11    40    42   ar
    12    37    38   ar
    13    38    39   ar
    14    29    30   ar
    15    30    31   ar
    16    31    32   ar
    17    32    25    1
    18    25     1    1
    19     1     2    1
    20     2     3    1
    21     3     4    1
    22     4     7    1
    23     7     8   am
    24     8     9    2
    25     8    10   am
    26    10    13    1
    27    13    14    1
    28    14    15    1
    29    15    16    1
    30    16    17    1
    31    17    18    1
    32    10    11    1
    33    11    12    1
    34    12    19    1
    35    19    20   ar
    36    20    21   ar
    37    21    22   ar
    38    22    23   ar
    39    23    24   ar
    40     4     5    1
    41     5     6    1
    42    32    27   ar
    43     6     1    1
    44    39    34   ar
    45    12     7    1
    46    24    19   ar
    47    18    13    1
@<TRIPOS>MOLECULE
*****
 42 47 0 0 0
SMALL
GASTEIGER

@<TRIPOS>ATOM
      1 N         142.6230  142.7355  159.7039 N.3     1  UNL1       -0.2688
      2 C         143.5483  141.6512  160.1711 C.3     1  UNL1        0.0741
      3 C         143.7311  140.4133  159.3439 C.3     1  UNL1        0.0372
      4 C         142.9886  140.2597  158.0496 C.3     1  UNL1        0.0799
      5 C         142.0634  141.3440  157.5825 C.3     1  UNL1        0.0372
      6 C         141.8806  142.5819  158.4096 C.3     1  UNL1        0.0741
      7 N         143.1714  139.0218  157.2225 N.am    1  UNL1       -0.2618
      8 C         142.6557  137.6536  157.5572 C.2     1  UNL1        0.3074
      9 O         141.8666  137.2831  158.7779 O.2     1  UNL1       -0.2523
     10 N         143.0675  136.7209  156.4570 N.am    1  UNL1       -0.2635
     11 C         143.8378  137.5127  155.4422 C.3     1  UNL1        0.1192
     12 C         143.9020  138.9347  155.9153 C.3     1  UNL1        0.1191
     13 C         142.7626  135.2541  156.3843 C.3     1  UNL1        0.0819
     14 C         143.5333  134.2851  157.2312 C.3     1  UNL1        0.0520
     15 C         143.2284  132.8182  157.1585 C.3     1  UNL1        0.1439
     16 O         142.1529  132.3203  156.2390 O.3     1  UNL1       -0.3537
     17 C         141.3823  133.2894  155.3922 C.3     1  UNL1        0.1439
     18 C         141.6872  134.7562  155.4649 C.3     1  UNL1        0.0520
     19 C         144.5781  140.0702  155.2058 C.ar    1  UNL1       -0.0026
     20 C         143.9362  140.6897  153.9998 C.ar    1  UNL1       -0.0026
     21 C         144.6123  141.8252  153.2903 C.ar    1  UNL1       -0.0003
     22 C         145.9303  142.3414  153.7867 C.ar    1  UNL1       -0.0000
     23 C         146.5722  141.7220  154.9927 C.ar    1  UNL1       -0.0003
     24 C         145.8962  140.5865  155.7021 C.ar    1  UNL1       -0.0026
     25 C         142.4403  143.9734  160.5310 C.3     1  UNL1        0.1003
     26 C         143.9057  144.8348  163.0031 C.3     1  UNL1        0.0519
     27 C         142.5007  144.3194  163.1053 C.ar    1  UNL1        0.0598
     28 N         141.8284  144.2347  164.4435 N.ar    1  UNL1       -0.2160
     29 C         140.4234  143.7194  164.5457 C.ar    1  UNL1        0.2293
     30 C         139.6907  143.2887  163.3098 C.ar    1  UNL1        0.0578
     31 C         140.3630  143.3734  161.9716 C.ar    1  UNL1        0.0031
     32 C         141.7680  143.8888  161.8693 C.ar    1  UNL1        0.0077
     33 O         139.7511  143.6347  165.8840 O.3     1  UNL1       -0.4361
     34 C         140.3736  142.8302  166.9864 C.ar    1  UNL1        0.1472
     35 C         141.1227  141.5709  166.6650 C.ar    1  UNL1        0.0376
     36 C         141.7452  140.7664  167.7674 C.ar    1  UNL1        0.0043
     37 C         141.6186  141.2212  169.1912 C.ar    1  UNL1        0.0142
     38 C         140.8695  142.4804  169.5126 C.ar    1  UNL1        0.0043
     39 C         140.2470  143.2849  168.4102 C.ar    1  UNL1        0.0376
     40 C         142.2411  140.4167  170.2937 C.2     1  UNL1        0.0729
     41 O         142.0494  140.8288  171.7231 O.co2   1  UNL1       -0.5446
     42 O         143.0553  139.2001  169.9666 O.co2   1  UNL1       -0.5446
@<TRIPOS>UNITY_ATOM_ATTR
41 1
charge -1
@<TRIPOS>BOND
     1    26    27    1
     2    27    28   ar
     3    28    29   ar
     4    29    33    1
     5    33    34    1
     6    34    35   ar
     7    35    36   ar
     8    36    37   ar
     9    37    40    1
    10    40    41   ar
    11    40    42   ar
    12    37    38   ar
    13    38    39   ar
    14    29    30   ar
    15    30    31   ar
    16    31    32   ar
    17    32    25    1
    18    25     1    1
    19     1     2    1
    20     2     3    1
    21     3     4    1
    22     4     7    1
    23     7     8   am
    24     8     9    2
    25     8    10   am
    26    10    13    1
    27    13    14    1
    28    14    15    1
    29    15    16    1
    30    16    17    1
    31    17    18    1
    32    10    11    1
    33    11    12    1
    34    12    19    1
    35    19    20   ar
    36    20    21   ar
    37    21    22   ar
    38    22    23   ar
    39    23    24   ar
    40     4     5    1
    41     5     6    1
    42    32    27   ar
    43     6     1    1
    44    39    34   ar
    45    12     7    1
    46    24    19   ar
    47    18    13    1
