@<TRIPOS>MOLECULE
*****
 34 38 0 0 0
SMALL
GASTEIGER

@<TRIPOS>ATOM
      1 C         140.4524  138.5613  160.1708 C.ar    1  UNL1        0.1233
      2 C         141.8466  138.5641  159.6172 C.ar    1  UNL1        0.1181
      3 N         141.7544  138.4069  158.1283 N.ar    1  UNL1       -0.2208
      4 N         140.3034  138.3068  157.7617 N.ar    1  UNL1       -0.0633
      5 N         139.4987  138.4023  159.0240 N.ar    1  UNL1       -0.1287
      6 C         138.9331  140.0260  163.5317 C.ar    1  UNL1        0.1547
      7 C         139.3077  139.8932  162.0853 C.ar    1  UNL1        0.0400
      8 C         140.0778  138.6941  161.6172 C.ar    1  UNL1        0.0241
      9 C         140.4732  137.6279  162.5953 C.ar    1  UNL1        0.0033
     10 C         140.0986  137.7607  164.0417 C.ar    1  UNL1        0.0207
     11 C         139.3286  138.9598  164.5099 C.ar    1  UNL1        0.0994
     12 N         138.9539  139.0927  165.9562 N.ar    1  UNL1       -0.2839
     13 C         137.8409  138.3641  166.6493 C.ar    1  UNL1        0.1826
     14 N         137.8256  138.7985  168.0849 N.ar    1  UNL1       -0.2280
     15 C         138.9293  139.7957  168.2792 C.ar    1  UNL1        0.0786
     16 C         139.2749  140.4892  169.5635 C.3     1  UNL1        0.0538
     17 C         139.6266  139.9775  166.9636 C.ar    1  UNL1        0.0963
     18 C         137.4647  142.1035  163.0045 C.3     1  UNL1        0.2525
     19 O         138.1631  141.2251  163.9999 O.3     1  UNL1       -0.4700
     20 C         142.9105  138.3582  157.1737 C.3     1  UNL1        0.2139
     21 C         143.1790  137.1115  156.3840 C.2     1  UNL1        0.2511
     22 O         144.4803  136.9510  155.6552 O.2     1  UNL1       -0.2726
     23 N         142.1465  136.0252  156.3232 N.am    1  UNL1       -0.2823
     24 H         141.2925  136.1305  156.8016 H       1  UNL1        0.1549
     25 C         142.4151  134.7784  155.5336 C.ar    1  UNL1        0.0503
     26 C         141.7863  134.5953  154.1841 C.ar    1  UNL1        0.0147
     27 C         142.0549  133.3486  153.3945 C.ar    1  UNL1        0.0013
     28 C         142.9522  132.2850  153.9543 C.ar    1  UNL1        0.0001
     29 C         143.5810  132.4680  155.3039 C.ar    1  UNL1        0.0012
     30 C         144.4783  131.4044  155.8637 C.ar    1  UNL1        0.0000
     31 C         145.1070  131.5875  157.2132 C.ar    1  UNL1        0.0000
     32 C         144.8385  132.8342  158.0028 C.ar    1  UNL1        0.0000
     33 C         143.9411  133.8979  157.4430 C.ar    1  UNL1        0.0012
     34 C         143.3124  133.7148  156.0935 C.ar    1  UNL1        0.0135
@<TRIPOS>BOND
     1    18    19    1
     2    19     6    1
     3     6     7   ar
     4     7     8   ar
     5     8     1    1
     6     1     2   ar
     7     2     3   ar
     8     3    20    1
     9    20    21    1
    10    21    22    2
    11    21    23   am
    12    23    25    1
    13    25    26   ar
    14    26    27   ar
    15    27    28   ar
    16    28    29   ar
    17    29    30   ar
    18    30    31   ar
    19    31    32   ar
    20    32    33   ar
    21    33    34   ar
    22     3     4   ar
    23     4     5   ar
    24     8     9   ar
    25     9    10   ar
    26    10    11   ar
    27    11    12    1
    28    12    13   ar
    29    13    14   ar
    30    14    15   ar
    31    15    16    1
    32    15    17   ar
    33    11     6   ar
    34    17    12   ar
    35     5     1   ar
    36    34    25   ar
    37    34    29   ar
    38    23    24    1
@<TRIPOS>MOLECULE
*****
 34 38 0 0 0
SMALL
GASTEIGER

@<TRIPOS>ATOM
      1 C         142.3182  139.1145  160.4458 C.ar    1  UNL1        0.1233
      2 C         141.8507  138.3325  159.2541 C.ar    1  UNL1        0.1181
      3 N         142.8137  138.5796  158.1309 N.ar    1  UNL1       -0.2208
      4 N         143.8763  139.5141  158.6283 N.ar    1  UNL1       -0.0633
      5 N         143.5701  139.8448  160.0590 N.ar    1  UNL1       -0.1287
      6 C         139.7363  140.0133  163.3226 C.ar    1  UNL1        0.1547
      7 C         140.4035  139.9692  161.9799 C.ar    1  UNL1        0.0400
      8 C         141.6509  139.1586  161.7885 C.ar    1  UNL1        0.0241
      9 C         142.2312  138.3919  162.9399 C.ar    1  UNL1        0.0033
     10 C         141.5640  138.4359  164.2826 C.ar    1  UNL1        0.0207
     11 C         140.3165  139.2466  164.4739 C.ar    1  UNL1        0.0994
     12 N         139.6493  139.2906  165.8166 N.ar    1  UNL1       -0.2839
     13 C         138.3892  138.5722  166.1990 C.ar    1  UNL1        0.1826
     14 N         138.0861  138.8984  167.6314 N.ar    1  UNL1       -0.2280
     15 C         139.1589  139.8183  168.1343 C.ar    1  UNL1        0.0786
     16 C         139.2496  140.3947  169.5162 C.3     1  UNL1        0.0538
     17 C         140.1249  140.0607  167.0128 C.ar    1  UNL1        0.0963
     18 C         137.8731  141.5395  162.3482 C.3     1  UNL1        0.2525
     19 O         138.4888  140.8239  163.5139 O.3     1  UNL1       -0.4700
     20 C         142.7289  137.9946  156.7522 C.3     1  UNL1        0.2139
     21 C         143.3657  136.6683  156.4598 C.2     1  UNL1        0.2511
     22 O         144.6613  136.6083  155.7062 O.2     1  UNL1       -0.2726
     23 N         142.7069  135.4021  156.9209 N.am    1  UNL1       -0.2823
     24 H         141.8566  135.4415  157.4155 H       1  UNL1        0.1549
     25 C         143.3437  134.0758  156.6285 C.ar    1  UNL1        0.0503
     26 C         144.2710  133.4522  157.6290 C.ar    1  UNL1        0.0147
     27 C         144.9078  132.1259  157.3366 C.ar    1  UNL1        0.0013
     28 C         144.6173  131.4233  156.0436 C.ar    1  UNL1        0.0001
     29 C         143.6899  132.0469  155.0429 C.ar    1  UNL1        0.0012
     30 C         143.3995  131.3443  153.7499 C.ar    1  UNL1        0.0000
     31 C         142.4722  131.9680  152.7494 C.ar    1  UNL1        0.0000
     32 C         141.8354  133.2942  153.0418 C.ar    1  UNL1        0.0000
     33 C         142.1259  133.9968  154.3348 C.ar    1  UNL1        0.0012
     34 C         143.0532  133.3732  155.3354 C.ar    1  UNL1        0.0135
@<TRIPOS>BOND
     1    18    19    1
     2    19     6    1
     3     6     7   ar
     4     7     8   ar
     5     8     1    1
     6     1     2   ar
     7     2     3   ar
     8     3    20    1
     9    20    21    1
    10    21    22    2
    11    21    23   am
    12    23    25    1
    13    25    26   ar
    14    26    27   ar
    15    27    28   ar
    16    28    29   ar
    17    29    30   ar
    18    30    31   ar
    19    31    32   ar
    20    32    33   ar
    21    33    34   ar
    22     3     4   ar
    23     4     5   ar
    24     8     9   ar
    25     9    10   ar
    26    10    11   ar
    27    11    12    1
    28    12    13   ar
    29    13    14   ar
    30    14    15   ar
    31    15    16    1
    32    15    17   ar
    33    11     6   ar
    34    17    12   ar
    35     5     1   ar
    36    34    25   ar
    37    34    29   ar
    38    23    24    1
@<TRIPOS>MOLECULE
*****
 34 38 0 0 0
SMALL
GASTEIGER

@<TRIPOS>ATOM
      1 C         143.7727  142.1906  161.3321 C.ar    1  UNL1        0.1233
      2 C         143.4327  140.9549  162.1116 C.ar    1  UNL1        0.1181
      3 N         144.5980  140.6316  162.9991 N.ar    1  UNL1       -0.2208
      4 N         145.6581  141.6673  162.7682 N.ar    1  UNL1       -0.0633
      5 N         145.1481  142.6309  161.7380 N.ar    1  UNL1       -0.1287
      6 C         140.9294  144.4775  159.7716 C.ar    1  UNL1        0.1547
      7 C         141.8101  143.8009  160.7798 C.ar    1  UNL1        0.0400
      8 C         142.8920  142.8672  160.3239 C.ar    1  UNL1        0.0241
      9 C         143.0931  142.6102  158.8599 C.ar    1  UNL1        0.0033
     10 C         142.2124  143.2868  157.8516 C.ar    1  UNL1        0.0207
     11 C         141.1306  144.2205  158.3075 C.ar    1  UNL1        0.0994
     12 N         140.2499  144.8971  157.2993 N.ar    1  UNL1       -0.2839
     13 C         139.1681  144.2419  156.4928 C.ar    1  UNL1        0.1826
     14 N         138.5459  145.2876  155.6156 N.ar    1  UNL1       -0.2280
     15 C         139.2432  146.5890  155.8799 C.ar    1  UNL1        0.0786
     16 C         138.9406  147.9014  155.2196 C.3     1  UNL1        0.0538
     17 C         140.2963  146.3477  156.9204 C.ar    1  UNL1        0.0963
     18 C         139.8677  145.9576  161.6243 C.3     1  UNL1        0.2525
     19 O         139.8476  145.4112  160.2274 O.3     1  UNL1       -0.4700
     20 C         144.6874  139.4753  163.9505 C.3     1  UNL1        0.2139
     21 C         143.8183  139.4407  165.1726 C.2     1  UNL1        0.2511
     22 O         143.8724  138.2616  166.0983 O.2     1  UNL1       -0.2726
     23 N         142.8952  140.5852  165.4691 N.am    1  UNL1       -0.2823
     24 H         142.8597  141.3591  164.8616 H       1  UNL1        0.1549
     25 C         142.0261  140.5506  166.6912 C.ar    1  UNL1        0.0503
     26 C         142.5330  141.1085  167.9880 C.ar    1  UNL1        0.0147
     27 C         141.6639  141.0739  169.2100 C.ar    1  UNL1        0.0013
     28 C         140.2879  140.4815  169.1353 C.ar    1  UNL1        0.0001
     29 C         139.7809  139.9236  167.8384 C.ar    1  UNL1        0.0012
     30 C         138.4049  139.3311  167.7637 C.ar    1  UNL1        0.0000
     31 C         137.8981  138.7732  166.4669 C.ar    1  UNL1        0.0000
     32 C         138.7672  138.8078  165.2448 C.ar    1  UNL1        0.0000
     33 C         140.1431  139.4003  165.3195 C.ar    1  UNL1        0.0012
     34 C         140.6500  139.9581  166.6164 C.ar    1  UNL1        0.0135
@<TRIPOS>BOND
     1    18    19    1
     2    19     6    1
     3     6     7   ar
     4     7     8   ar
     5     8     1    1
     6     1     2   ar
     7     2     3   ar
     8     3    20    1
     9    20    21    1
    10    21    22    2
    11    21    23   am
    12    23    25    1
    13    25    26   ar
    14    26    27   ar
    15    27    28   ar
    16    28    29   ar
    17    29    30   ar
    18    30    31   ar
    19    31    32   ar
    20    32    33   ar
    21    33    34   ar
    22     3     4   ar
    23     4     5   ar
    24     8     9   ar
    25     9    10   ar
    26    10    11   ar
    27    11    12    1
    28    12    13   ar
    29    13    14   ar
    30    14    15   ar
    31    15    16    1
    32    15    17   ar
    33    11     6   ar
    34    17    12   ar
    35     5     1   ar
    36    34    25   ar
    37    34    29   ar
    38    23    24    1
@<TRIPOS>MOLECULE
*****
 34 38 0 0 0
SMALL
GASTEIGER

@<TRIPOS>ATOM
      1 C         140.1402  144.4466  162.0643 C.ar    1  UNL1        0.1233
      2 C         140.6709  143.6961  160.8788 C.ar    1  UNL1        0.1181
      3 N         140.4169  144.5245  159.6543 N.ar    1  UNL1       -0.2208
      4 N         139.7295  145.7868  160.0829 N.ar    1  UNL1       -0.0633
      5 N         139.5584  145.7388  161.5724 N.ar    1  UNL1       -0.1287
      6 C         141.2956  142.5723  165.3661 C.ar    1  UNL1        0.1547
      7 C         141.2520  143.0330  163.9393 C.ar    1  UNL1        0.0400
      8 C         140.1838  143.9859  163.4911 C.ar    1  UNL1        0.0241
      9 C         139.1591  144.4781  164.4698 C.ar    1  UNL1        0.0033
     10 C         139.2026  144.0174  165.8966 C.ar    1  UNL1        0.0207
     11 C         140.2709  143.0645  166.3448 C.ar    1  UNL1        0.0994
     12 N         140.3144  142.6038  167.7716 N.ar    1  UNL1       -0.2839
     13 C         140.5597  143.4706  168.9709 C.ar    1  UNL1        0.1826
     14 N         140.5172  142.5979  170.1902 N.ar    1  UNL1       -0.2280
     15 C         140.2457  141.1916  169.7444 C.ar    1  UNL1        0.0786
     16 C         140.1213  139.9923  170.6366 C.3     1  UNL1        0.0538
     17 C         140.1203  141.1952  168.2496 C.ar    1  UNL1        0.0963
     18 C         143.7768  141.8020  165.3449 C.3     1  UNL1        0.2525
     19 O         142.3638  141.6194  165.8142 O.3     1  UNL1       -0.4700
     20 C         140.7858  144.1551  158.2480 C.3     1  UNL1        0.2139
     21 C         140.9731  145.2271  157.2157 C.2     1  UNL1        0.2511
     22 O         142.1813  146.1148  157.2669 O.2     1  UNL1       -0.2726
     23 N         139.9524  145.4114  156.1321 N.am    1  UNL1       -0.2823
     24 H         139.1595  144.8288  156.0986 H       1  UNL1        0.1549
     25 C         140.1397  146.4834  155.0998 C.ar    1  UNL1        0.0503
     26 C         140.8873  146.1837  153.8344 C.ar    1  UNL1        0.0147
     27 C         141.0746  147.2557  152.8021 C.ar    1  UNL1        0.0013
     28 C         140.5143  148.6274  153.0351 C.ar    1  UNL1        0.0001
     29 C         139.7666  148.9272  154.3005 C.ar    1  UNL1        0.0012
     30 C         139.2063  150.2989  154.5335 C.ar    1  UNL1        0.0000
     31 C         138.4587  150.5987  155.7988 C.ar    1  UNL1        0.0000
     32 C         138.2714  149.5267  156.8312 C.ar    1  UNL1        0.0000
     33 C         138.8317  148.1550  156.5982 C.ar    1  UNL1        0.0012
     34 C         139.5793  147.8552  155.3328 C.ar    1  UNL1        0.0135
@<TRIPOS>BOND
     1    18    19    1
     2    19     6    1
     3     6     7   ar
     4     7     8   ar
     5     8     1    1
     6     1     2   ar
     7     2     3   ar
     8     3    20    1
     9    20    21    1
    10    21    22    2
    11    21    23   am
    12    23    25    1
    13    25    26   ar
    14    26    27   ar
    15    27    28   ar
    16    28    29   ar
    17    29    30   ar
    18    30    31   ar
    19    31    32   ar
    20    32    33   ar
    21    33    34   ar
    22     3     4   ar
    23     4     5   ar
    24     8     9   ar
    25     9    10   ar
    26    10    11   ar
    27    11    12    1
    28    12    13   ar
    29    13    14   ar
    30    14    15   ar
    31    15    16    1
    32    15    17   ar
    33    11     6   ar
    34    17    12   ar
    35     5     1   ar
    36    34    25   ar
    37    34    29   ar
    38    23    24    1
@<TRIPOS>MOLECULE
*****
 34 38 0 0 0
SMALL
GASTEIGER

@<TRIPOS>ATOM
      1 C         143.5904  142.4955  161.7240 C.ar    1  UNL1        0.1233
      2 C         143.2724  141.2160  162.4397 C.ar    1  UNL1        0.1181
      3 N         144.3627  140.9599  163.4375 N.ar    1  UNL1       -0.2208
      4 N         145.3545  142.0808  163.3385 N.ar    1  UNL1       -0.0633
      5 N         144.8772  143.0299  162.2796 N.ar    1  UNL1       -0.1287
      6 C         140.7894  144.6527  159.9210 C.ar    1  UNL1        0.1547
      7 C         141.6135  144.0190  161.0023 C.ar    1  UNL1        0.0400
      8 C         142.7662  143.1291  160.6427 C.ar    1  UNL1        0.0241
      9 C         143.0948  142.8729  159.2017 C.ar    1  UNL1        0.0033
     10 C         142.2707  143.5066  158.1204 C.ar    1  UNL1        0.0207
     11 C         141.1180  144.3965  158.4800 C.ar    1  UNL1        0.0994
     12 N         140.2939  145.0301  157.3987 N.ar    1  UNL1       -0.2839
     13 C         139.2590  144.3404  156.5602 C.ar    1  UNL1        0.1826
     14 N         138.6854  145.3488  155.6093 N.ar    1  UNL1       -0.2280
     15 C         139.3659  146.6618  155.8601 C.ar    1  UNL1        0.0786
     16 C         139.0992  147.9462  155.1327 C.3     1  UNL1        0.0538
     17 C         140.3600  146.4649  156.9660 C.ar    1  UNL1        0.0963
     18 C         139.6600  146.3182  161.5644 C.3     1  UNL1        0.2525
     19 O         139.6367  145.5426  160.2807 O.3     1  UNL1       -0.4700
     20 C         144.4465  139.7883  164.3705 C.3     1  UNL1        0.2139
     21 C         143.4535  139.6451  165.4856 C.2     1  UNL1        0.2511
     22 O         143.4924  138.4370  166.3740 O.2     1  UNL1       -0.2726
     23 N         142.4217  140.7099  165.7124 N.am    1  UNL1       -0.2823
     24 H         142.3962  141.5028  165.1294 H       1  UNL1        0.1549
     25 C         141.4287  140.5667  166.8275 C.ar    1  UNL1        0.0503
     26 C         140.1502  139.8156  166.6014 C.ar    1  UNL1        0.0147
     27 C         139.1572  139.6724  167.7165 C.ar    1  UNL1        0.0013
     28 C         139.4427  140.2803  169.0577 C.ar    1  UNL1        0.0001
     29 C         140.7213  141.0315  169.2839 C.ar    1  UNL1        0.0012
     30 C         141.0068  141.6394  170.6251 C.ar    1  UNL1        0.0000
     31 C         142.2853  142.3905  170.8512 C.ar    1  UNL1        0.0000
     32 C         143.2783  142.5337  169.7360 C.ar    1  UNL1        0.0000
     33 C         142.9928  141.9258  168.3949 C.ar    1  UNL1        0.0012
     34 C         141.7143  141.1747  168.1688 C.ar    1  UNL1        0.0135
@<TRIPOS>BOND
     1    18    19    1
     2    19     6    1
     3     6     7   ar
     4     7     8   ar
     5     8     1    1
     6     1     2   ar
     7     2     3   ar
     8     3    20    1
     9    20    21    1
    10    21    22    2
    11    21    23   am
    12    23    25    1
    13    25    26   ar
    14    26    27   ar
    15    27    28   ar
    16    28    29   ar
    17    29    30   ar
    18    30    31   ar
    19    31    32   ar
    20    32    33   ar
    21    33    34   ar
    22     3     4   ar
    23     4     5   ar
    24     8     9   ar
    25     9    10   ar
    26    10    11   ar
    27    11    12    1
    28    12    13   ar
    29    13    14   ar
    30    14    15   ar
    31    15    16    1
    32    15    17   ar
    33    11     6   ar
    34    17    12   ar
    35     5     1   ar
    36    34    25   ar
    37    34    29   ar
    38    23    24    1
@<TRIPOS>MOLECULE
*****
 34 38 0 0 0
SMALL
GASTEIGER

@<TRIPOS>ATOM
      1 C         141.9392  138.9591  160.8045 C.ar    1  UNL1        0.1233
      2 C         142.9869  139.0990  159.7401 C.ar    1  UNL1        0.1181
      3 N         142.3803  138.6776  158.4345 N.ar    1  UNL1       -0.2208
      4 N         140.9579  138.2772  158.6919 N.ar    1  UNL1       -0.0633
      5 N         140.6852  138.4512  160.1566 N.ar    1  UNL1       -0.1287
      6 C         141.0972  139.9270  164.5600 C.ar    1  UNL1        0.1547
      7 C         140.9217  139.6140  163.1035 C.ar    1  UNL1        0.0400
      8 C         142.1146  139.2721  162.2609 C.ar    1  UNL1        0.0241
      9 C         143.4830  139.2433  162.8747 C.ar    1  UNL1        0.0033
     10 C         143.6585  139.5563  164.3311 C.ar    1  UNL1        0.0207
     11 C         142.4656  139.8982  165.1737 C.ar    1  UNL1        0.0994
     12 N         142.6411  140.2112  166.6302 N.ar    1  UNL1       -0.2839
     13 C         142.7360  139.2090  167.7422 C.ar    1  UNL1        0.1826
     14 N         142.9060  139.9598  169.0296 N.ar    1  UNL1       -0.2280
     15 C         142.9162  141.4260  168.7133 C.ar    1  UNL1        0.0786
     16 C         143.0641  142.5411  169.7056 C.3     1  UNL1        0.0538
     17 C         142.7524  141.5814  167.2304 C.ar    1  UNL1        0.0963
     18 C         138.6236  139.5062  165.2342 C.3     1  UNL1        0.2525
     19 O         139.9043  140.2688  165.4026 O.3     1  UNL1       -0.4700
     20 C         143.0745  138.6597  157.1049 C.3     1  UNL1        0.2139
     21 C         143.0952  137.4027  156.2865 C.2     1  UNL1        0.2511
     22 O         143.9592  137.3184  155.0631 O.2     1  UNL1       -0.2726
     23 N         142.2521  136.2301  156.6915 N.am    1  UNL1       -0.2823
     24 H         141.6851  136.2855  157.4944 H       1  UNL1        0.1549
     25 C         142.2728  134.9732  155.8731 C.ar    1  UNL1        0.0503
     26 C         141.4172  134.8629  154.6461 C.ar    1  UNL1        0.0147
     27 C         141.4379  133.6060  153.8278 C.ar    1  UNL1        0.0013
     28 C         142.3142  132.4593  154.2365 C.ar    1  UNL1        0.0001
     29 C         143.1699  132.5695  155.4636 C.ar    1  UNL1        0.0012
     30 C         144.0463  131.4229  155.8722 C.ar    1  UNL1        0.0000
     31 C         144.9019  131.5331  157.0993 C.ar    1  UNL1        0.0000
     32 C         144.8812  132.7901  157.9176 C.ar    1  UNL1        0.0000
     33 C         144.0049  133.9367  157.5089 C.ar    1  UNL1        0.0012
     34 C         143.1492  133.8265  156.2819 C.ar    1  UNL1        0.0135
@<TRIPOS>BOND
     1    18    19    1
     2    19     6    1
     3     6     7   ar
     4     7     8   ar
     5     8     1    1
     6     1     2   ar
     7     2     3   ar
     8     3    20    1
     9    20    21    1
    10    21    22    2
    11    21    23   am
    12    23    25    1
    13    25    26   ar
    14    26    27   ar
    15    27    28   ar
    16    28    29   ar
    17    29    30   ar
    18    30    31   ar
    19    31    32   ar
    20    32    33   ar
    21    33    34   ar
    22     3     4   ar
    23     4     5   ar
    24     8     9   ar
    25     9    10   ar
    26    10    11   ar
    27    11    12    1
    28    12    13   ar
    29    13    14   ar
    30    14    15   ar
    31    15    16    1
    32    15    17   ar
    33    11     6   ar
    34    17    12   ar
    35     5     1   ar
    36    34    25   ar
    37    34    29   ar
    38    23    24    1
@<TRIPOS>MOLECULE
*****
 34 38 0 0 0
SMALL
GASTEIGER

@<TRIPOS>ATOM
      1 C         142.2952  138.4974  158.5630 C.ar    1  UNL1        0.1233
      2 C         141.6580  137.7224  157.4479 C.ar    1  UNL1        0.1181
      3 N         142.5469  137.8267  156.2441 N.ar    1  UNL1       -0.2208
      4 N         143.7333  138.6661  156.6152 N.ar    1  UNL1       -0.0633
      5 N         143.5778  139.0806  158.0483 N.ar    1  UNL1       -0.1287
      6 C         140.1265  139.8394  161.6037 C.ar    1  UNL1        0.1547
      7 C         140.6755  139.6763  160.2173 C.ar    1  UNL1        0.0400
      8 C         141.7462  138.6605  159.9494 C.ar    1  UNL1        0.0241
      9 C         142.2678  137.8077  161.0678 C.ar    1  UNL1        0.0033
     10 C         141.7188  137.9708  162.4541 C.ar    1  UNL1        0.0207
     11 C         140.6482  138.9867  162.7221 C.ar    1  UNL1        0.0994
     12 N         140.0992  139.1497  164.1084 N.ar    1  UNL1       -0.2839
     13 C         140.6564  140.0415  165.1781 C.ar    1  UNL1        0.1826
     14 N         139.7981  139.8926  166.3993 N.ar    1  UNL1       -0.2280
     15 C         138.7105  138.9088  166.0843 C.ar    1  UNL1        0.0786
     16 C         137.6270  138.4625  167.0207 C.3     1  UNL1        0.0538
     17 C         138.8965  138.4497  164.6685 C.ar    1  UNL1        0.0963
     18 C         137.6254  140.5404  161.5481 C.3     1  UNL1        0.2525
     19 O         139.0559  140.8552  161.8716 O.3     1  UNL1       -0.4700
     20 C         142.2936  137.2013  154.9043 C.3     1  UNL1        0.2139
     21 C         142.2807  135.7079  154.7642 C.2     1  UNL1        0.2511
     22 O         142.4665  135.0797  153.4148 O.2     1  UNL1       -0.2726
     23 N         142.0819  134.8428  155.9733 N.am    1  UNL1       -0.2823
     24 H         141.9600  135.2552  156.8589 H       1  UNL1        0.1549
     25 C         142.0690  133.3495  155.8331 C.ar    1  UNL1        0.0503
     26 C         141.0201  132.6841  154.9922 C.ar    1  UNL1        0.0147
     27 C         141.0072  131.1908  154.8521 C.ar    1  UNL1        0.0013
     28 C         142.0431  130.3627  155.5528 C.ar    1  UNL1        0.0001
     29 C         143.0921  131.0280  156.3938 C.ar    1  UNL1        0.0012
     30 C         144.1280  130.1999  157.0945 C.ar    1  UNL1        0.0000
     31 C         145.1769  130.8653  157.9354 C.ar    1  UNL1        0.0000
     32 C         145.1898  132.3586  158.0756 C.ar    1  UNL1        0.0000
     33 C         144.1539  133.1867  157.3749 C.ar    1  UNL1        0.0012
     34 C         143.1050  132.5214  156.5339 C.ar    1  UNL1        0.0135
@<TRIPOS>BOND
     1    18    19    1
     2    19     6    1
     3     6     7   ar
     4     7     8   ar
     5     8     1    1
     6     1     2   ar
     7     2     3   ar
     8     3    20    1
     9    20    21    1
    10    21    22    2
    11    21    23   am
    12    23    25    1
    13    25    26   ar
    14    26    27   ar
    15    27    28   ar
    16    28    29   ar
    17    29    30   ar
    18    30    31   ar
    19    31    32   ar
    20    32    33   ar
    21    33    34   ar
    22     3     4   ar
    23     4     5   ar
    24     8     9   ar
    25     9    10   ar
    26    10    11   ar
    27    11    12    1
    28    12    13   ar
    29    13    14   ar
    30    14    15   ar
    31    15    16    1
    32    15    17   ar
    33    11     6   ar
    34    17    12   ar
    35     5     1   ar
    36    34    25   ar
    37    34    29   ar
    38    23    24    1
@<TRIPOS>MOLECULE
*****
 34 38 0 0 0
SMALL
GASTEIGER

@<TRIPOS>ATOM
      1 C         142.5307  139.0783  160.9180 C.ar    1  UNL1        0.1233
      2 C         141.5163  139.1305  159.8141 C.ar    1  UNL1        0.1181
      3 N         142.2356  138.9268  158.5137 N.ar    1  UNL1       -0.2208
      4 N         143.6944  138.7487  158.8137 N.ar    1  UNL1       -0.0633
      5 N         143.8769  138.8423  160.2996 N.ar    1  UNL1       -0.1287
      6 C         142.0280  140.7486  164.4827 C.ar    1  UNL1        0.1547
      7 C         142.3102  140.5922  163.0178 C.ar    1  UNL1        0.0400
      8 C         142.2485  139.2346  162.3829 C.ar    1  UNL1        0.0241
      9 C         141.9047  138.0334  163.2128 C.ar    1  UNL1        0.0033
     10 C         141.6225  138.1897  164.6777 C.ar    1  UNL1        0.0207
     11 C         141.6841  139.5473  165.3126 C.ar    1  UNL1        0.0994
     12 N         141.4019  139.7036  166.7775 N.ar    1  UNL1       -0.2839
     13 C         142.3994  139.5569  167.8882 C.ar    1  UNL1        0.1826
     14 N         141.6866  139.7967  169.1860 N.ar    1  UNL1       -0.2280
     15 C         140.2486  140.0917  168.8775 C.ar    1  UNL1        0.0786
     16 C         139.1751  140.3915  169.8813 C.3     1  UNL1        0.0538
     17 C         140.0726  140.0341  167.3890 C.ar    1  UNL1        0.0963
     18 C         143.3700  142.5896  165.7315 C.3     1  UNL1        0.2525
     19 O         142.0896  142.1061  165.1176 O.3     1  UNL1       -0.4700
     20 C         141.6064  138.9050  157.1522 C.3     1  UNL1        0.2139
     21 C         141.4873  137.6118  156.4016 C.2     1  UNL1        0.2511
     22 O         140.1739  136.8885  156.3573 O.2     1  UNL1       -0.2726
     23 N         142.6816  137.0418  155.6953 N.am    1  UNL1       -0.2823
     24 H         143.5436  137.5166  155.7244 H       1  UNL1        0.1549
     25 C         142.5626  135.7486  154.9448 C.ar    1  UNL1        0.0503
     26 C         141.9373  135.7274  153.5815 C.ar    1  UNL1        0.0147
     27 C         141.8182  134.4342  152.8309 C.ar    1  UNL1        0.0013
     28 C         142.3245  133.1621  153.4436 C.ar    1  UNL1        0.0001
     29 C         142.9498  133.1832  154.8070 C.ar    1  UNL1        0.0012
     30 C         143.4561  131.9111  155.4196 C.ar    1  UNL1        0.0000
     31 C         144.0814  131.9323  156.7829 C.ar    1  UNL1        0.0000
     32 C         144.2004  133.2255  157.5335 C.ar    1  UNL1        0.0000
     33 C         143.6942  134.4976  156.9208 C.ar    1  UNL1        0.0012
     34 C         143.0689  134.4764  155.5575 C.ar    1  UNL1        0.0135
@<TRIPOS>BOND
     1    18    19    1
     2    19     6    1
     3     6     7   ar
     4     7     8   ar
     5     8     1    1
     6     1     2   ar
     7     2     3   ar
     8     3    20    1
     9    20    21    1
    10    21    22    2
    11    21    23   am
    12    23    25    1
    13    25    26   ar
    14    26    27   ar
    15    27    28   ar
    16    28    29   ar
    17    29    30   ar
    18    30    31   ar
    19    31    32   ar
    20    32    33   ar
    21    33    34   ar
    22     3     4   ar
    23     4     5   ar
    24     8     9   ar
    25     9    10   ar
    26    10    11   ar
    27    11    12    1
    28    12    13   ar
    29    13    14   ar
    30    14    15   ar
    31    15    16    1
    32    15    17   ar
    33    11     6   ar
    34    17    12   ar
    35     5     1   ar
    36    34    25   ar
    37    34    29   ar
    38    23    24    1
@<TRIPOS>MOLECULE
*****
 34 38 0 0 0
SMALL
GASTEIGER

@<TRIPOS>ATOM
      1 C         140.5579  144.3666  160.9923 C.ar    1  UNL1        0.1233
      2 C         140.1865  143.6721  162.2690 C.ar    1  UNL1        0.1181
      3 N         139.1287  144.4888  162.9501 N.ar    1  UNL1       -0.2208
      4 N         138.8463  145.6880  162.0945 N.ar    1  UNL1       -0.0633
      5 N         139.7296  145.6125  160.8845 N.ar    1  UNL1       -0.1287
      6 C         143.4641  142.2444  159.3190 C.ar    1  UNL1        0.1547
      7 C         142.4436  142.7134  160.3132 C.ar    1  UNL1        0.0400
      8 C         141.5784  143.8975  159.9980 C.ar    1  UNL1        0.0241
      9 C         141.7337  144.6126  158.6886 C.ar    1  UNL1        0.0033
     10 C         142.7542  144.1435  157.6943 C.ar    1  UNL1        0.0207
     11 C         143.6194  142.9594  158.0095 C.ar    1  UNL1        0.0994
     12 N         144.6399  142.4903  157.0153 N.ar    1  UNL1       -0.2839
     13 C         144.3515  141.9189  155.6587 C.ar    1  UNL1        0.1826
     14 N         145.6614  141.5858  155.0080 N.ar    1  UNL1       -0.2280
     15 C         146.7593  141.9513  155.9625 C.ar    1  UNL1        0.0786
     16 C         148.2302  141.7867  155.7191 C.3     1  UNL1        0.0538
     17 C         146.1280  142.5103  157.2030 C.ar    1  UNL1        0.0963
     18 C         143.7553  139.8872  160.3720 C.3     1  UNL1        0.2525
     19 O         144.3293  141.0603  159.6342 O.3     1  UNL1       -0.4700
     20 C         138.4691  144.1634  164.2574 C.3     1  UNL1        0.2139
     21 C         138.9931  143.0406  165.1029 C.2     1  UNL1        0.2511
     22 O         138.2999  141.7104  165.0967 O.2     1  UNL1       -0.2726
     23 N         140.2104  143.2480  165.9545 N.am    1  UNL1       -0.2823
     24 H         140.6654  144.1210  165.9585 H       1  UNL1        0.1549
     25 C         140.7344  142.1252  166.7999 C.ar    1  UNL1        0.0503
     26 C         140.3502  142.0335  168.2469 C.ar    1  UNL1        0.0147
     27 C         140.8742  140.9107  169.0923 C.ar    1  UNL1        0.0013
     28 C         141.7825  139.8796  168.4907 C.ar    1  UNL1        0.0001
     29 C         142.1668  139.9713  167.0436 C.ar    1  UNL1        0.0012
     30 C         143.0750  138.9403  166.4420 C.ar    1  UNL1        0.0000
     31 C         143.4592  139.0320  164.9950 C.ar    1  UNL1        0.0000
     32 C         142.9352  140.1548  164.1496 C.ar    1  UNL1        0.0000
     33 C         142.0269  141.1859  164.7512 C.ar    1  UNL1        0.0012
     34 C         141.6427  141.0941  166.1982 C.ar    1  UNL1        0.0135
@<TRIPOS>BOND
     1    18    19    1
     2    19     6    1
     3     6     7   ar
     4     7     8   ar
     5     8     1    1
     6     1     2   ar
     7     2     3   ar
     8     3    20    1
     9    20    21    1
    10    21    22    2
    11    21    23   am
    12    23    25    1
    13    25    26   ar
    14    26    27   ar
    15    27    28   ar
    16    28    29   ar
    17    29    30   ar
    18    30    31   ar
    19    31    32   ar
    20    32    33   ar
    21    33    34   ar
    22     3     4   ar
    23     4     5   ar
    24     8     9   ar
    25     9    10   ar
    26    10    11   ar
    27    11    12    1
    28    12    13   ar
    29    13    14   ar
    30    14    15   ar
    31    15    16    1
    32    15    17   ar
    33    11     6   ar
    34    17    12   ar
    35     5     1   ar
    36    34    25   ar
    37    34    29   ar
    38    23    24    1
