@<TRIPOS>MOLECULE
*****
 34 38 0 0 0
SMALL
GASTEIGER

@<TRIPOS>ATOM
      1 N         141.9222  137.8236  157.5040 N.3     1  UNL1       -0.2704
      2 C         140.5018  138.1650  157.8446 C.3     1  UNL1        0.0722
      3 C         140.1134  138.4216  159.2705 C.3     1  UNL1        0.0175
      4 C         141.1454  138.3368  160.3558 C.3     1  UNL1        0.0060
      5 C         142.5657  137.9954  160.0153 C.3     1  UNL1        0.0175
      6 C         142.9541  137.7388  158.5894 C.3     1  UNL1        0.0722
      7 C         139.7250  138.6782  160.6965 C.3     1  UNL1        0.0216
      8 C         139.3366  138.9348  162.1224 C.3     1  UNL1        0.0922
      9 N         140.3685  138.8500  163.2077 N.pl3   1  UNL1       -0.2932
     10 C         141.7888  138.5086  162.8671 C.3     1  UNL1        0.0922
     11 C         142.1773  138.2520  161.4412 C.3     1  UNL1        0.0216
     12 C         139.9800  139.1066  164.6337 C.ar    1  UNL1        0.1317
     13 C         138.5740  138.8459  165.0865 C.ar    1  UNL1        0.0350
     14 C         138.1856  139.1025  166.5124 C.ar    1  UNL1        0.0147
     15 C         139.2032  139.6198  167.4855 C.ar    1  UNL1        0.0877
     16 C         140.6092  139.8805  167.0327 C.ar    1  UNL1        0.1105
     17 N         140.9976  139.6239  165.6068 N.ar    1  UNL1       -0.2285
     18 C         138.8147  139.8764  168.9115 C.1     1  UNL1        0.1020
     19 N         138.4263  140.1330  170.3374 N.1     1  UNL1       -0.1908
     20 C         142.3106  137.5670  156.0781 C.3     1  UNL1        0.1063
     21 C         143.4339  136.6236  155.7649 C.3     1  UNL1        0.1483
     22 O         144.7861  137.1617  155.4014 O.3     1  UNL1       -0.3786
     23 H         145.3923  136.4240  155.2305 H       1  UNL1        0.2108
     24 C         142.1990  135.2159  153.4210 C.3     1  UNL1        0.0306
     25 C         142.5876  134.4382  154.6433 C.ar    1  UNL1       -0.0238
     26 C         143.2051  135.1419  155.8152 C.ar    1  UNL1        0.0015
     27 C         143.5937  134.3642  157.0375 C.ar    1  UNL1       -0.0020
     28 C         143.3649  132.8826  157.0879 C.ar    1  UNL1        0.0060
     29 C         142.7474  132.1788  155.9160 C.ar    1  UNL1        0.0748
     30 C         142.3588  132.9566  154.6937 C.ar    1  UNL1        0.0233
     31 C         141.7740  131.9969  153.7002 C.3     1  UNL1        0.2352
     32 O         141.8012  130.6261  154.3084 O.3     1  UNL1       -0.4404
     33 C         142.4028  130.7385  155.6779 C.2     1  UNL1        0.3413
     34 O         142.6215  129.6089  156.6403 O.2     1  UNL1       -0.2449
@<TRIPOS>BOND
     1    24    25    1
     2    25    26   ar
     3    26    21    1
     4    21    22    1
     5    21    20    1
     6    20     1    1
     7     1     2    1
     8     2     3    1
     9     3     4    1
    10     4     5    1
    11     5     6    1
    12     4     7    1
    13     7     8    1
    14     8     9    1
    15     9    12    1
    16    12    13   ar
    17    13    14   ar
    18    14    15   ar
    19    15    18    1
    20    18    19    3
    21    15    16   ar
    22    16    17   ar
    23     9    10    1
    24    10    11    1
    25    26    27   ar
    26    27    28   ar
    27    28    29   ar
    28    29    30   ar
    29    30    31    1
    30    31    32    1
    31    32    33    1
    32    33    34    2
    33    30    25   ar
    34     6     1    1
    35    17    12   ar
    36    33    29    1
    37    11     4    1
    38    22    23    1
@<TRIPOS>MOLECULE
*****
 34 38 0 0 0
SMALL
GASTEIGER

@<TRIPOS>ATOM
      1 N         141.6078  137.9486  158.6312 N.3     1  UNL1       -0.2704
      2 C         142.8060  137.7760  159.5168 C.3     1  UNL1        0.0722
      3 C         142.7079  138.0884  160.9806 C.3     1  UNL1        0.0175
      4 C         141.4115  138.5735  161.5587 C.3     1  UNL1        0.0060
      5 C         140.2133  138.7461  160.6731 C.3     1  UNL1        0.0175
      6 C         140.3114  138.4336  159.2093 C.3     1  UNL1        0.0722
      7 C         142.6098  138.4009  162.4445 C.3     1  UNL1        0.0216
      8 C         142.5117  138.7133  163.9083 C.3     1  UNL1        0.0922
      9 N         141.2153  139.1983  164.4864 N.pl3   1  UNL1       -0.2932
     10 C         140.0171  139.3709  163.6007 C.3     1  UNL1        0.0922
     11 C         140.1152  139.0585  162.1369 C.3     1  UNL1        0.0216
     12 C         141.1172  139.5108  165.9503 C.ar    1  UNL1        0.1317
     13 C         142.3443  139.4613  166.8116 C.ar    1  UNL1        0.0350
     14 C         142.2461  139.7738  168.2754 C.ar    1  UNL1        0.0147
     15 C         140.9210  140.1357  168.8778 C.ar    1  UNL1        0.0877
     16 C         139.6939  140.1851  168.0165 C.ar    1  UNL1        0.1105
     17 N         139.7921  139.8727  166.5527 N.ar    1  UNL1       -0.2285
     18 C         140.8229  140.4481  170.3417 C.1     1  UNL1        0.1020
     19 N         140.7248  140.7605  171.8055 N.1     1  UNL1       -0.1908
     20 C         141.7059  137.6361  157.1673 C.3     1  UNL1        0.1063
     21 C         142.8849  136.8730  156.6407 C.3     1  UNL1        0.1483
     22 O         144.0833  137.6097  156.1198 O.3     1  UNL1       -0.3786
     23 H         144.7498  136.9719  155.8201 H       1  UNL1        0.2108
     24 C         141.1279  135.4028  154.7039 C.3     1  UNL1        0.0306
     25 C         141.9872  134.6380  155.6665 C.ar    1  UNL1       -0.0238
     26 C         142.8657  135.3731  156.6349 C.ar    1  UNL1        0.0015
     27 C         143.7251  134.6083  157.5975 C.ar    1  UNL1       -0.0020
     28 C         143.7059  133.1085  157.5918 C.ar    1  UNL1        0.0060
     29 C         142.8274  132.3734  156.6234 C.ar    1  UNL1        0.0748
     30 C         141.9681  133.1382  155.6608 C.ar    1  UNL1        0.0233
     31 C         141.2096  132.1473  154.8284 C.3     1  UNL1        0.2352
     32 O         141.6002  130.7701  155.2766 O.3     1  UNL1       -0.4404
     33 C         142.6000  130.9099  156.3860 C.2     1  UNL1        0.3413
     34 O         143.2572  129.7838  157.1277 O.2     1  UNL1       -0.2449
@<TRIPOS>BOND
     1    24    25    1
     2    25    26   ar
     3    26    21    1
     4    21    22    1
     5    21    20    1
     6    20     1    1
     7     1     2    1
     8     2     3    1
     9     3     4    1
    10     4     5    1
    11     5     6    1
    12     4     7    1
    13     7     8    1
    14     8     9    1
    15     9    12    1
    16    12    13   ar
    17    13    14   ar
    18    14    15   ar
    19    15    18    1
    20    18    19    3
    21    15    16   ar
    22    16    17   ar
    23     9    10    1
    24    10    11    1
    25    26    27   ar
    26    27    28   ar
    27    28    29   ar
    28    29    30   ar
    29    30    31    1
    30    31    32    1
    31    32    33    1
    32    33    34    2
    33    30    25   ar
    34     6     1    1
    35    17    12   ar
    36    33    29    1
    37    11     4    1
    38    22    23    1
@<TRIPOS>MOLECULE
*****
 34 38 0 0 0
SMALL
GASTEIGER

@<TRIPOS>ATOM
      1 N         141.6852  137.9208  157.3939 N.3     1  UNL1       -0.2704
      2 C         140.2566  138.1428  157.7936 C.3     1  UNL1        0.0722
      3 C         139.9100  138.3903  159.2319 C.3     1  UNL1        0.0175
      4 C         140.9920  138.4158  160.2704 C.3     1  UNL1        0.0060
      5 C         142.4206  138.1938  159.8707 C.3     1  UNL1        0.0175
      6 C         142.7672  137.9464  158.4325 C.3     1  UNL1        0.0722
      7 C         139.5634  138.6378  160.6702 C.3     1  UNL1        0.0216
      8 C         139.2168  138.8852  162.1084 C.3     1  UNL1        0.0922
      9 N         140.2988  138.9108  163.1470 N.pl3   1  UNL1       -0.2932
     10 C         141.7274  138.6888  162.7473 C.3     1  UNL1        0.0922
     11 C         142.0741  138.4413  161.3090 C.3     1  UNL1        0.0216
     12 C         139.9522  139.1583  164.5853 C.ar    1  UNL1        0.1317
     13 C         138.5663  138.8721  165.0827 C.ar    1  UNL1        0.0350
     14 C         138.2197  139.1196  166.5209 C.ar    1  UNL1        0.0147
     15 C         139.2590  139.6533  167.4617 C.ar    1  UNL1        0.0877
     16 C         140.6448  139.9394  166.9643 C.ar    1  UNL1        0.1105
     17 N         140.9914  139.6919  165.5261 N.ar    1  UNL1       -0.2285
     18 C         138.9123  139.9008  168.9001 C.1     1  UNL1        0.1020
     19 N         138.5657  140.1483  170.3383 N.1     1  UNL1       -0.1908
     20 C         142.0319  137.6733  155.9556 C.3     1  UNL1        0.1063
     21 C         143.1199  136.7030  155.6026 C.3     1  UNL1        0.1483
     22 O         144.5568  137.1264  155.6809 O.3     1  UNL1       -0.3786
     23 H         145.1267  136.3855  155.4217 H       1  UNL1        0.2108
     24 C         143.4391  134.4159  157.5176 C.3     1  UNL1        0.0306
     25 C         142.9307  134.1658  156.1288 C.ar    1  UNL1       -0.0238
     26 C         142.7711  135.3093  155.1713 C.ar    1  UNL1        0.0015
     27 C         142.2627  135.0592  153.7824 C.ar    1  UNL1       -0.0020
     28 C         141.9138  133.6656  153.3510 C.ar    1  UNL1        0.0060
     29 C         142.0735  132.5221  154.3085 C.ar    1  UNL1        0.0748
     30 C         142.5819  132.7722  155.6974 C.ar    1  UNL1        0.0233
     31 C         142.6351  131.4563  156.4155 C.3     1  UNL1        0.2352
     32 O         142.1596  130.3930  155.4704 O.3     1  UNL1       -0.4404
     33 C         141.8125  131.0517  154.1683 C.2     1  UNL1        0.3413
     34 O         141.2952  130.3612  152.9412 O.2     1  UNL1       -0.2449
@<TRIPOS>BOND
     1    24    25    1
     2    25    26   ar
     3    26    21    1
     4    21    22    1
     5    21    20    1
     6    20     1    1
     7     1     2    1
     8     2     3    1
     9     3     4    1
    10     4     5    1
    11     5     6    1
    12     4     7    1
    13     7     8    1
    14     8     9    1
    15     9    12    1
    16    12    13   ar
    17    13    14   ar
    18    14    15   ar
    19    15    18    1
    20    18    19    3
    21    15    16   ar
    22    16    17   ar
    23     9    10    1
    24    10    11    1
    25    26    27   ar
    26    27    28   ar
    27    28    29   ar
    28    29    30   ar
    29    30    31    1
    30    31    32    1
    31    32    33    1
    32    33    34    2
    33    30    25   ar
    34     6     1    1
    35    17    12   ar
    36    33    29    1
    37    11     4    1
    38    22    23    1
@<TRIPOS>MOLECULE
*****
 34 38 0 0 0
SMALL
GASTEIGER

@<TRIPOS>ATOM
      1 N         144.7374  141.2890  163.0965 N.3     1  UNL1       -0.2704
      2 C         144.3888  139.8378  163.2454 C.3     1  UNL1        0.0722
      3 C         143.9219  139.0527  162.0556 C.3     1  UNL1        0.0175
      4 C         143.8037  139.7190  160.7169 C.3     1  UNL1        0.0060
      5 C         144.1523  141.1703  160.5680 C.3     1  UNL1        0.0175
      6 C         144.6191  141.9553  161.7578 C.3     1  UNL1        0.0722
      7 C         143.4550  138.2676  160.8657 C.3     1  UNL1        0.0216
      8 C         142.9881  137.4826  159.6759 C.3     1  UNL1        0.0922
      9 N         142.8699  138.1489  158.3372 N.pl3   1  UNL1       -0.2932
     10 C         143.2185  139.6001  158.1883 C.3     1  UNL1        0.0922
     11 C         143.6854  140.3852  159.3782 C.3     1  UNL1        0.0216
     12 C         142.4030  137.3637  157.1473 C.ar    1  UNL1        0.1317
     13 C         143.3886  136.5804  156.3319 C.ar    1  UNL1        0.0350
     14 C         142.9217  135.7953  155.1422 C.ar    1  UNL1        0.0147
     15 C         141.4691  135.7936  154.7678 C.ar    1  UNL1        0.0877
     16 C         140.4835  136.5770  155.5832 C.ar    1  UNL1        0.1105
     17 N         140.9505  137.3620  156.7729 N.ar    1  UNL1       -0.2285
     18 C         141.0022  135.0085  153.5779 C.1     1  UNL1        0.1020
     19 N         140.5353  134.2234  152.3882 N.1     1  UNL1       -0.1908
     20 C         145.2043  142.0742  164.2864 C.3     1  UNL1        0.1063
     21 C         144.2322  142.9175  165.0569 C.3     1  UNL1        0.1483
     22 O         144.6532  143.5594  166.3456 O.3     1  UNL1       -0.3786
     23 H         143.9114  144.0655  166.7122 H       1  UNL1        0.2108
     24 C         143.5970  145.3006  163.3489 C.3     1  UNL1        0.0306
     25 C         142.5214  144.3105  163.6848 C.ar    1  UNL1       -0.0238
     26 C         142.8390  143.1190  164.5387 C.ar    1  UNL1        0.0015
     27 C         141.7634  142.1288  164.8746 C.ar    1  UNL1       -0.0020
     28 C         140.3702  142.3303  164.3565 C.ar    1  UNL1        0.0060
     29 C         140.0526  143.5218  163.5025 C.ar    1  UNL1        0.0748
     30 C         141.1282  144.5119  163.1666 C.ar    1  UNL1        0.0233
     31 C         140.5212  145.5828  162.3094 C.3     1  UNL1        0.2352
     32 O         139.0705  145.2545  162.1155 O.3     1  UNL1       -0.4404
     33 C         138.7809  143.9808  162.8528 C.2     1  UNL1        0.3413
     34 O         137.4528  143.2876  162.9275 O.2     1  UNL1       -0.2449
@<TRIPOS>BOND
     1    24    25    1
     2    25    26   ar
     3    26    21    1
     4    21    22    1
     5    21    20    1
     6    20     1    1
     7     1     2    1
     8     2     3    1
     9     3     4    1
    10     4     5    1
    11     5     6    1
    12     4     7    1
    13     7     8    1
    14     8     9    1
    15     9    12    1
    16    12    13   ar
    17    13    14   ar
    18    14    15   ar
    19    15    18    1
    20    18    19    3
    21    15    16   ar
    22    16    17   ar
    23     9    10    1
    24    10    11    1
    25    26    27   ar
    26    27    28   ar
    27    28    29   ar
    28    29    30   ar
    29    30    31    1
    30    31    32    1
    31    32    33    1
    32    33    34    2
    33    30    25   ar
    34     6     1    1
    35    17    12   ar
    36    33    29    1
    37    11     4    1
    38    22    23    1
@<TRIPOS>MOLECULE
*****
 34 38 0 0 0
SMALL
GASTEIGER

@<TRIPOS>ATOM
      1 N         140.0026  142.7303  160.6932 N.3     1  UNL1       -0.2704
      2 C         141.4112  142.2150  160.6791 C.3     1  UNL1        0.0722
      3 C         141.7555  140.9952  159.8770 C.3     1  UNL1        0.0175
      4 C         140.6912  140.2907  159.0890 C.3     1  UNL1        0.0060
      5 C         139.2826  140.8059  159.1031 C.3     1  UNL1        0.0175
      6 C         138.9383  142.0258  159.9052 C.3     1  UNL1        0.0722
      7 C         142.0999  139.7753  159.0749 C.3     1  UNL1        0.0216
      8 C         142.4442  138.5555  158.2728 C.3     1  UNL1        0.0922
      9 N         141.3800  137.8509  157.4848 N.pl3   1  UNL1       -0.2932
     10 C         139.9713  138.3662  157.4989 C.3     1  UNL1        0.0922
     11 C         139.6270  139.5861  158.3010 C.3     1  UNL1        0.0216
     12 C         141.7244  136.6310  156.6827 C.ar    1  UNL1        0.1317
     13 C         142.9672  135.8525  156.9977 C.ar    1  UNL1        0.0350
     14 C         143.3115  134.6327  156.1956 C.ar    1  UNL1        0.0147
     15 C         142.4130  134.1914  155.0784 C.ar    1  UNL1        0.0877
     16 C         141.1702  134.9699  154.7634 C.ar    1  UNL1        0.1105
     17 N         140.8259  136.1897  155.5655 N.ar    1  UNL1       -0.2285
     18 C         142.7574  132.9715  154.2763 C.1     1  UNL1        0.1020
     19 N         143.1018  131.7517  153.4742 N.1     1  UNL1       -0.1908
     20 C         139.6582  143.9502  161.4953 C.3     1  UNL1        0.1063
     21 C         138.6817  143.8510  162.6295 C.3     1  UNL1        0.1483
     22 O         137.3724  144.5795  162.5579 O.3     1  UNL1       -0.3786
     23 H         136.8636  144.4102  163.3662 H       1  UNL1        0.2108
     24 C         137.3590  141.1887  163.0330 C.3     1  UNL1        0.0306
     25 C         138.3531  141.6921  164.0372 C.ar    1  UNL1       -0.0238
     26 C         139.0144  143.0232  163.8355 C.ar    1  UNL1        0.0015
     27 C         140.0085  143.5267  164.8396 C.ar    1  UNL1       -0.0020
     28 C         140.3412  142.6990  166.0455 C.ar    1  UNL1        0.0060
     29 C         139.6799  141.3679  166.2472 C.ar    1  UNL1        0.0748
     30 C         138.6858  140.8644  165.2430 C.ar    1  UNL1        0.0233
     31 C         138.1982  139.5234  165.7056 C.3     1  UNL1        0.2352
     32 O         138.8909  139.1981  166.9957 O.3     1  UNL1       -0.4404
     33 C         139.8066  140.3380  167.3304 C.2     1  UNL1        0.3413
     34 O         140.6934  140.4316  168.5366 O.2     1  UNL1       -0.2449
@<TRIPOS>BOND
     1    24    25    1
     2    25    26   ar
     3    26    21    1
     4    21    22    1
     5    21    20    1
     6    20     1    1
     7     1     2    1
     8     2     3    1
     9     3     4    1
    10     4     5    1
    11     5     6    1
    12     4     7    1
    13     7     8    1
    14     8     9    1
    15     9    12    1
    16    12    13   ar
    17    13    14   ar
    18    14    15   ar
    19    15    18    1
    20    18    19    3
    21    15    16   ar
    22    16    17   ar
    23     9    10    1
    24    10    11    1
    25    26    27   ar
    26    27    28   ar
    27    28    29   ar
    28    29    30   ar
    29    30    31    1
    30    31    32    1
    31    32    33    1
    32    33    34    2
    33    30    25   ar
    34     6     1    1
    35    17    12   ar
    36    33    29    1
    37    11     4    1
    38    22    23    1
@<TRIPOS>MOLECULE
*****
 34 38 0 0 0
SMALL
GASTEIGER

@<TRIPOS>ATOM
      1 N         142.5048  143.1561  163.5347 N.3     1  UNL1       -0.2704
      2 C         142.9482  144.1003  162.4569 C.3     1  UNL1        0.0722
      3 C         142.1796  144.1855  161.1716 C.3     1  UNL1        0.0175
      4 C         140.9676  143.3264  160.9642 C.3     1  UNL1        0.0060
      5 C         140.5242  142.3822  162.0420 C.3     1  UNL1        0.0175
      6 C         141.2928  142.2970  163.3273 C.3     1  UNL1        0.0722
      7 C         141.4109  144.2707  159.8863 C.3     1  UNL1        0.0216
      8 C         140.6423  144.3559  158.6010 C.3     1  UNL1        0.0922
      9 N         139.4303  143.4968  158.3936 N.pl3   1  UNL1       -0.2932
     10 C         138.9869  142.5525  159.4715 C.3     1  UNL1        0.0922
     11 C         139.7556  142.4673  160.7568 C.3     1  UNL1        0.0216
     12 C         138.6617  143.5820  157.1083 C.ar    1  UNL1        0.1317
     13 C         137.5297  142.6331  156.8470 C.ar    1  UNL1        0.0350
     14 C         136.7612  142.7183  155.5618 C.ar    1  UNL1        0.0147
     15 C         137.1245  143.7524  154.5378 C.ar    1  UNL1        0.0877
     16 C         138.2564  144.7013  154.7990 C.ar    1  UNL1        0.1105
     17 N         139.0250  144.6161  156.0843 N.ar    1  UNL1       -0.2285
     18 C         136.3559  143.8376  153.2524 C.1     1  UNL1        0.1020
     19 N         135.5873  143.9229  151.9672 N.1     1  UNL1       -0.1908
     20 C         143.2735  143.0709  164.8200 C.3     1  UNL1        0.1063
     21 C         143.2495  141.8060  165.6258 C.3     1  UNL1        0.1483
     22 O         143.8928  140.5621  165.0884 O.3     1  UNL1       -0.3786
     23 H         143.7882  139.8413  165.7291 H       1  UNL1        0.2108
     24 C         140.6895  140.2885  166.0053 C.3     1  UNL1        0.0306
     25 C         141.3022  141.0262  167.1588 C.ar    1  UNL1       -0.0238
     26 C         142.5821  141.7849  166.9691 C.ar    1  UNL1        0.0015
     27 C         143.1948  142.5226  168.1225 C.ar    1  UNL1       -0.0020
     28 C         142.5275  142.5016  169.4657 C.ar    1  UNL1        0.0060
     29 C         141.2475  141.7429  169.6555 C.ar    1  UNL1        0.0748
     30 C         140.6349  141.0052  168.5020 C.ar    1  UNL1        0.0233
     31 C         139.3763  140.3491  168.9873 C.3     1  UNL1        0.2352
     32 O         139.2111  140.6812  170.4407 O.3     1  UNL1       -0.4404
     33 C         140.3676  141.5426  170.8537 C.2     1  UNL1        0.3413
     34 O         140.6029  142.1051  172.2242 O.2     1  UNL1       -0.2449
@<TRIPOS>BOND
     1    24    25    1
     2    25    26   ar
     3    26    21    1
     4    21    22    1
     5    21    20    1
     6    20     1    1
     7     1     2    1
     8     2     3    1
     9     3     4    1
    10     4     5    1
    11     5     6    1
    12     4     7    1
    13     7     8    1
    14     8     9    1
    15     9    12    1
    16    12    13   ar
    17    13    14   ar
    18    14    15   ar
    19    15    18    1
    20    18    19    3
    21    15    16   ar
    22    16    17   ar
    23     9    10    1
    24    10    11    1
    25    26    27   ar
    26    27    28   ar
    27    28    29   ar
    28    29    30   ar
    29    30    31    1
    30    31    32    1
    31    32    33    1
    32    33    34    2
    33    30    25   ar
    34     6     1    1
    35    17    12   ar
    36    33    29    1
    37    11     4    1
    38    22    23    1
@<TRIPOS>MOLECULE
*****
 34 38 0 0 0
SMALL
GASTEIGER

@<TRIPOS>ATOM
      1 N         142.1487  141.5124  163.2290 N.3     1  UNL1       -0.2704
      2 C         141.5724  142.8126  162.7521 C.3     1  UNL1        0.0722
      3 C         140.6468  142.8347  161.5719 C.3     1  UNL1        0.0175
      4 C         140.2976  141.5566  160.8686 C.3     1  UNL1        0.0060
      5 C         140.8739  140.2565  161.3455 C.3     1  UNL1        0.0175
      6 C         141.7995  140.2344  162.5257 C.3     1  UNL1        0.0722
      7 C         139.7212  142.8568  160.3917 C.3     1  UNL1        0.0216
      8 C         138.7957  142.8789  159.2115 C.3     1  UNL1        0.0922
      9 N         138.4465  141.6008  158.5082 N.pl3   1  UNL1       -0.2932
     10 C         139.0228  140.3007  158.9851 C.3     1  UNL1        0.0922
     11 C         139.9484  140.2785  160.1653 C.3     1  UNL1        0.0216
     12 C         137.5209  141.6229  157.3280 C.ar    1  UNL1        0.1317
     13 C         137.6228  142.7249  156.3155 C.ar    1  UNL1        0.0350
     14 C         136.6972  142.7470  155.1354 C.ar    1  UNL1        0.0147
     15 C         135.6697  141.6671  154.9677 C.ar    1  UNL1        0.0877
     16 C         135.5678  140.5651  155.9802 C.ar    1  UNL1        0.1105
     17 N         136.4934  140.5431  157.1604 N.ar    1  UNL1       -0.2285
     18 C         134.7441  141.6892  153.7875 C.1     1  UNL1        0.1020
     19 N         133.8186  141.7113  152.6073 N.1     1  UNL1       -0.1908
     20 C         143.0743  141.4903  164.4092 C.3     1  UNL1        0.1063
     21 C         142.9465  140.4104  165.4423 C.3     1  UNL1        0.1483
     22 O         143.4465  139.0273  165.1474 O.3     1  UNL1       -0.3786
     23 H         143.2883  138.4558  165.9150 H       1  UNL1        0.2108
     24 C         140.2270  139.3272  166.0985 C.3     1  UNL1        0.0306
     25 C         140.9591  140.1720  167.0986 C.ar    1  UNL1       -0.0238
     26 C         142.3188  140.7136  166.7706 C.ar    1  UNL1        0.0015
     27 C         143.0509  141.5585  167.7707 C.ar    1  UNL1       -0.0020
     28 C         142.4233  141.8617  169.0989 C.ar    1  UNL1        0.0060
     29 C         141.0636  141.3201  169.4269 C.ar    1  UNL1        0.0748
     30 C         140.3314  140.4752  168.4268 C.ar    1  UNL1        0.0233
     31 C         139.0139  140.0833  169.0272 C.3     1  UNL1        0.2352
     32 O         138.9317  140.6858  170.3984 O.3     1  UNL1       -0.4404
     33 C         140.1985  141.4502  170.6454 C.2     1  UNL1        0.3413
     34 O         140.5402  142.2112  171.8921 O.2     1  UNL1       -0.2449
@<TRIPOS>BOND
     1    24    25    1
     2    25    26   ar
     3    26    21    1
     4    21    22    1
     5    21    20    1
     6    20     1    1
     7     1     2    1
     8     2     3    1
     9     3     4    1
    10     4     5    1
    11     5     6    1
    12     4     7    1
    13     7     8    1
    14     8     9    1
    15     9    12    1
    16    12    13   ar
    17    13    14   ar
    18    14    15   ar
    19    15    18    1
    20    18    19    3
    21    15    16   ar
    22    16    17   ar
    23     9    10    1
    24    10    11    1
    25    26    27   ar
    26    27    28   ar
    27    28    29   ar
    28    29    30   ar
    29    30    31    1
    30    31    32    1
    31    32    33    1
    32    33    34    2
    33    30    25   ar
    34     6     1    1
    35    17    12   ar
    36    33    29    1
    37    11     4    1
    38    22    23    1
@<TRIPOS>MOLECULE
*****
 34 38 0 0 0
SMALL
GASTEIGER

@<TRIPOS>ATOM
      1 N         143.2047  138.7277  165.4047 N.3     1  UNL1       -0.2704
      2 C         142.0099  138.0675  164.7830 C.3     1  UNL1        0.0722
      3 C         141.8992  137.9696  163.2903 C.3     1  UNL1        0.0175
      4 C         142.9833  138.5319  162.4194 C.3     1  UNL1        0.0060
      5 C         144.1780  139.1922  163.0411 C.3     1  UNL1        0.0175
      6 C         144.2888  139.2901  164.5337 C.3     1  UNL1        0.0722
      7 C         141.7885  137.8716  161.7976 C.3     1  UNL1        0.0216
      8 C         141.6778  137.7738  160.3049 C.3     1  UNL1        0.0922
      9 N         142.7618  138.3361  159.4339 N.pl3   1  UNL1       -0.2932
     10 C         143.9566  138.9964  160.0556 C.3     1  UNL1        0.0922
     11 C         144.0673  139.0943  161.5484 C.3     1  UNL1        0.0216
     12 C         142.6510  138.2382  157.9412 C.ar    1  UNL1        0.1317
     13 C         141.4276  137.6344  157.3179 C.ar    1  UNL1        0.0350
     14 C         141.3169  137.5365  155.8252 C.ar    1  UNL1        0.0147
     15 C         142.4296  138.0424  154.9558 C.ar    1  UNL1        0.0877
     16 C         143.6531  138.6462  155.5791 C.ar    1  UNL1        0.1105
     17 N         143.7638  138.7441  157.0718 N.ar    1  UNL1       -0.2285
     18 C         142.3189  137.9445  153.4631 C.1     1  UNL1        0.1020
     19 N         142.2081  137.8465  151.9704 N.1     1  UNL1       -0.1908
     20 C         143.3155  138.8256  166.8974 C.3     1  UNL1        0.1063
     21 C         142.6276  139.9398  167.6291 C.3     1  UNL1        0.1483
     22 O         142.9389  140.1927  169.0744 O.3     1  UNL1       -0.3786
     23 H         142.4122  140.9426  169.3923 H       1  UNL1        0.2108
     24 C         143.5392  142.3895  166.1566 C.3     1  UNL1        0.0306
     25 C         142.0841  142.0260  166.1791 C.ar    1  UNL1       -0.0238
     26 C         141.6282  140.8012  166.9153 C.ar    1  UNL1        0.0015
     27 C         140.1731  140.4378  166.9378 C.ar    1  UNL1       -0.0020
     28 C         139.1738  141.2991  166.2241 C.ar    1  UNL1        0.0060
     29 C         139.6296  142.5239  165.4879 C.ar    1  UNL1        0.0748
     30 C         141.0848  142.8874  165.4654 C.ar    1  UNL1        0.0233
     31 C         141.2360  144.1452  164.6622 C.3     1  UNL1        0.2352
     32 O         139.8743  144.5592  164.1884 O.3     1  UNL1       -0.4404
     33 C         138.8816  143.5572  164.6987 C.2     1  UNL1        0.3413
     34 O         137.4007  143.5837  164.4614 O.2     1  UNL1       -0.2449
@<TRIPOS>BOND
     1    24    25    1
     2    25    26   ar
     3    26    21    1
     4    21    22    1
     5    21    20    1
     6    20     1    1
     7     1     2    1
     8     2     3    1
     9     3     4    1
    10     4     5    1
    11     5     6    1
    12     4     7    1
    13     7     8    1
    14     8     9    1
    15     9    12    1
    16    12    13   ar
    17    13    14   ar
    18    14    15   ar
    19    15    18    1
    20    18    19    3
    21    15    16   ar
    22    16    17   ar
    23     9    10    1
    24    10    11    1
    25    26    27   ar
    26    27    28   ar
    27    28    29   ar
    28    29    30   ar
    29    30    31    1
    30    31    32    1
    31    32    33    1
    32    33    34    2
    33    30    25   ar
    34     6     1    1
    35    17    12   ar
    36    33    29    1
    37    11     4    1
    38    22    23    1
@<TRIPOS>MOLECULE
*****
 34 38 0 0 0
SMALL
GASTEIGER

@<TRIPOS>ATOM
      1 N         143.8840  140.6561  163.9285 N.3     1  UNL1       -0.2704
      2 C         143.4115  139.2338  163.8670 C.3     1  UNL1        0.0722
      3 C         143.1725  138.5798  162.5384 C.3     1  UNL1        0.0175
      4 C         143.4060  139.3481  161.2714 C.3     1  UNL1        0.0060
      5 C         143.8785  140.7704  161.3330 C.3     1  UNL1        0.0175
      6 C         144.1174  141.4244  162.6616 C.3     1  UNL1        0.0722
      7 C         142.9335  137.9258  161.2098 C.3     1  UNL1        0.0216
      8 C         142.6946  137.2718  159.8812 C.3     1  UNL1        0.0922
      9 N         142.9280  138.0400  158.6142 N.pl3   1  UNL1       -0.2932
     10 C         143.4005  139.4623  158.6758 C.3     1  UNL1        0.0922
     11 C         143.6395  140.1164  160.0044 C.3     1  UNL1        0.0216
     12 C         142.6890  137.3860  157.2856 C.ar    1  UNL1        0.1317
     13 C         142.8547  135.9024  157.1394 C.ar    1  UNL1        0.0350
     14 C         142.6157  135.2484  155.8109 C.ar    1  UNL1        0.0147
     15 C         142.2110  136.0780  154.6285 C.ar    1  UNL1        0.0877
     16 C         142.0453  137.5616  154.7747 C.ar    1  UNL1        0.1105
     17 N         142.2843  138.2156  156.1033 N.ar    1  UNL1       -0.2285
     18 C         141.9720  135.4239  153.2999 C.1     1  UNL1        0.1020
     19 N         141.7331  134.7699  151.9713 N.1     1  UNL1       -0.1908
     20 C         144.1230  141.3102  165.2572 C.3     1  UNL1        0.1063
     21 C         143.0911  142.2326  165.8355 C.3     1  UNL1        0.1483
     22 O         143.0668  143.6774  165.4331 O.3     1  UNL1       -0.3786
     23 H         142.3437  144.1296  165.8951 H       1  UNL1        0.2108
     24 C         143.5894  142.4961  168.7821 C.3     1  UNL1        0.0306
     25 C         142.3326  141.8419  168.2895 C.ar    1  UNL1       -0.0238
     26 C         142.0835  141.7101  166.8162 C.ar    1  UNL1        0.0015
     27 C         140.8267  141.0559  166.3237 C.ar    1  UNL1       -0.0020
     28 C         139.8191  140.5335  167.3043 C.ar    1  UNL1        0.0060
     29 C         140.0683  140.6653  168.7776 C.ar    1  UNL1        0.0748
     30 C         141.3250  141.3195  169.2702 C.ar    1  UNL1        0.0233
     31 C         141.2969  141.3071  170.7698 C.3     1  UNL1        0.2352
     32 O         140.0227  140.6453  171.2041 O.3     1  UNL1       -0.4404
     33 C         139.2635  140.2486  169.9728 C.2     1  UNL1        0.3413
     34 O         137.9329  139.5567  169.9422 O.2     1  UNL1       -0.2449
@<TRIPOS>BOND
     1    24    25    1
     2    25    26   ar
     3    26    21    1
     4    21    22    1
     5    21    20    1
     6    20     1    1
     7     1     2    1
     8     2     3    1
     9     3     4    1
    10     4     5    1
    11     5     6    1
    12     4     7    1
    13     7     8    1
    14     8     9    1
    15     9    12    1
    16    12    13   ar
    17    13    14   ar
    18    14    15   ar
    19    15    18    1
    20    18    19    3
    21    15    16   ar
    22    16    17   ar
    23     9    10    1
    24    10    11    1
    25    26    27   ar
    26    27    28   ar
    27    28    29   ar
    28    29    30   ar
    29    30    31    1
    30    31    32    1
    31    32    33    1
    32    33    34    2
    33    30    25   ar
    34     6     1    1
    35    17    12   ar
    36    33    29    1
    37    11     4    1
    38    22    23    1
