@<TRIPOS>MOLECULE
*****
 32 34 0 0 0
SMALL
GASTEIGER

@<TRIPOS>ATOM
      1 C         139.3901  139.9053  162.6317 C.3     1  UNL1        0.0750
      2 C         140.1723  141.1834  162.6995 C.3     1  UNL1        0.0412
      3 C         141.0332  141.5980  161.5433 C.3     1  UNL1        0.0984
      4 N         141.1120  140.7345  160.3192 N.am    1  UNL1       -0.2459
      5 C         141.9729  141.1492  159.1630 C.2     1  UNL1        0.4052
      6 O         142.0517  140.2858  157.9390 O.2     1  UNL1       -0.2262
      7 C         140.3298  139.4565  160.2514 C.3     1  UNL1        0.0984
      8 C         139.4689  139.0418  161.4076 C.3     1  UNL1        0.0412
      9 O         140.5420  138.2223  164.8319 O.2     1  UNL1       -0.2751
     10 C         139.1051  138.6491  164.8880 C.2     1  UNL1        0.2224
     11 N         138.5292  139.4906  163.7879 N.am    1  UNL1       -0.3058
     12 H         137.5861  139.7707  163.8247 H       1  UNL1        0.1494
     13 C         138.2441  138.2345  166.0442 C.3     1  UNL1        0.0851
     14 C         138.1902  139.0815  167.2809 C.3     1  UNL1        0.0100
     15 C         139.2542  140.1082  167.5337 C.3     1  UNL1        0.0068
     16 C         140.1859  139.9516  168.6988 C.3     1  UNL1        0.0469
     17 C         140.2749  141.0295  169.7381 C.ar    1  UNL1        0.0740
     18 C         140.3350  142.5051  169.4751 C.ar    1  UNL1        0.1378
     19 N         140.4166  143.2087  170.7973 N.ar    1  UNL1       -0.1277
     20 N         140.4070  142.1679  171.8775 N.ar    1  UNL1       -0.0675
     21 N         140.3194  140.8212  171.2228 N.ar    1  UNL1       -0.2605
     22 H         140.2954  139.9529  171.6863 H       1  UNL1        0.1903
     23 O         142.7551  142.4273  159.2308 O.3     1  UNL1       -0.4295
     24 C         144.1290  142.4348  159.8329 C.3     1  UNL1        0.2368
     25 C         144.2945  142.4385  161.3237 C.ar    1  UNL1        0.0230
     26 C         144.0331  143.6924  162.1043 C.ar    1  UNL1        0.0108
     27 C         144.1986  143.6960  163.5951 C.ar    1  UNL1        0.0583
     28 CL        143.9373  144.9500  164.3757 Cl      1  UNL1       -0.0822
     29 C         144.6256  142.4457  164.3054 C.ar    1  UNL1        0.0228
     30 C         144.8869  141.1917  163.5248 C.ar    1  UNL1        0.0583
     31 CL        145.3138  139.9414  164.2350 Cl      1  UNL1       -0.0822
     32 C         144.7214  141.1881  162.0339 C.ar    1  UNL1        0.0108
@<TRIPOS>BOND
     1     9    10    2
     2    10    13    1
     3    13    14    1
     4    14    15    1
     5    15    16    1
     6    16    17    1
     7    17    18   ar
     8    18    19   ar
     9    19    20   ar
    10    20    21   ar
    11    10    11   am
    12    11     1    1
    13     1     2    1
    14     2     3    1
    15     3     4    1
    16     4     5   am
    17     5     6    2
    18     5    23    1
    19    23    24    1
    20    24    25    1
    21    25    26   ar
    22    26    27   ar
    23    27    28    1
    24    27    29   ar
    25    29    30   ar
    26    30    31    1
    27    30    32   ar
    28     4     7    1
    29     7     8    1
    30    21    17   ar
    31     8     1    1
    32    32    25   ar
    33    21    22    1
    34    11    12    1
@<TRIPOS>MOLECULE
*****
 32 34 0 0 0
SMALL
GASTEIGER

@<TRIPOS>ATOM
      1 C         139.7252  139.6189  161.9814 C.3     1  UNL1        0.0750
      2 C         139.0100  138.8024  160.9461 C.3     1  UNL1        0.0412
      3 C         139.7364  138.3509  159.7139 C.3     1  UNL1        0.0984
      4 N         141.1779  138.7158  159.5169 N.am    1  UNL1       -0.2459
      5 C         141.9043  138.2642  158.2846 C.2     1  UNL1        0.4052
      6 O         143.3458  138.6291  158.0876 O.2     1  UNL1       -0.2262
      7 C         141.8931  139.5323  160.5522 C.3     1  UNL1        0.0984
      8 C         141.1667  139.9839  161.7844 C.3     1  UNL1        0.0412
      9 O         139.9753  138.0536  164.5284 O.2     1  UNL1       -0.2751
     10 C         139.1239  139.2879  164.4871 C.2     1  UNL1        0.2224
     11 N         138.9988  140.0705  163.2137 N.am    1  UNL1       -0.3058
     12 H         138.4400  140.8806  163.1866 H       1  UNL1        0.1494
     13 C         138.3975  139.7395  165.7195 C.3     1  UNL1        0.0851
     14 C         139.0235  139.5530  167.0697 C.3     1  UNL1        0.0100
     15 C         140.2870  140.2827  167.4178 C.3     1  UNL1        0.0068
     16 C         140.2191  141.6571  168.0149 C.3     1  UNL1        0.0469
     17 C         140.5245  141.8588  169.4696 C.ar    1  UNL1        0.0740
     18 C         141.8896  141.8661  170.0912 C.ar    1  UNL1        0.1378
     19 N         141.7272  142.1004  171.5638 N.ar    1  UNL1       -0.1277
     20 N         140.2616  142.2378  171.8524 N.ar    1  UNL1       -0.0675
     21 N         139.5183  142.0884  170.5581 N.ar    1  UNL1       -0.2605
     22 H         138.5416  142.1333  170.4432 H       1  UNL1        0.1903
     23 O         141.1891  137.4477  157.2493 O.3     1  UNL1       -0.4295
     24 C         141.9655  136.7790  156.1537 C.3     1  UNL1        0.2368
     25 C         142.2822  135.3157  156.2445 C.ar    1  UNL1        0.0230
     26 C         143.4095  134.8448  157.1148 C.ar    1  UNL1        0.0108
     27 C         143.7262  133.3815  157.2055 C.ar    1  UNL1        0.0583
     28 CL        144.8536  132.9107  158.0758 Cl      1  UNL1       -0.0822
     29 C         142.9156  132.3889  156.4260 C.ar    1  UNL1        0.0228
     30 C         141.7882  132.8597  155.5557 C.ar    1  UNL1        0.0583
     31 CL        140.9776  131.8672  154.7761 Cl      1  UNL1       -0.0822
     32 C         141.4715  134.3231  155.4649 C.ar    1  UNL1        0.0108
@<TRIPOS>BOND
     1     9    10    2
     2    10    13    1
     3    13    14    1
     4    14    15    1
     5    15    16    1
     6    16    17    1
     7    17    18   ar
     8    18    19   ar
     9    19    20   ar
    10    20    21   ar
    11    10    11   am
    12    11     1    1
    13     1     2    1
    14     2     3    1
    15     3     4    1
    16     4     5   am
    17     5     6    2
    18     5    23    1
    19    23    24    1
    20    24    25    1
    21    25    26   ar
    22    26    27   ar
    23    27    28    1
    24    27    29   ar
    25    29    30   ar
    26    30    31    1
    27    30    32   ar
    28     4     7    1
    29     7     8    1
    30    21    17   ar
    31     8     1    1
    32    32    25   ar
    33    21    22    1
    34    11    12    1
@<TRIPOS>MOLECULE
*****
 32 34 0 0 0
SMALL
GASTEIGER

@<TRIPOS>ATOM
      1 C         140.4166  139.2966  161.4335 C.3     1  UNL1        0.0750
      2 C         141.7961  138.7235  161.2978 C.3     1  UNL1        0.0412
      3 C         142.2457  138.1539  159.9851 C.3     1  UNL1        0.0984
      4 N         141.3158  138.1573  158.8081 N.am    1  UNL1       -0.2459
      5 C         141.7655  137.5877  157.4953 C.2     1  UNL1        0.4052
      6 O         140.8356  137.5911  156.3183 O.2     1  UNL1       -0.2262
      7 C         139.9363  138.7304  158.9438 C.3     1  UNL1        0.0984
      8 C         139.4867  139.3001  160.2566 C.3     1  UNL1        0.0412
      9 O         138.6825  137.6673  163.2606 O.2     1  UNL1       -0.2751
     10 C         139.0999  139.0517  163.6598 C.2     1  UNL1        0.2224
     11 N         139.9669  139.8663  162.7463 N.am    1  UNL1       -0.3058
     12 H         140.2409  140.7749  163.0083 H       1  UNL1        0.1494
     13 C         138.6502  139.6214  164.9726 C.3     1  UNL1        0.0851
     14 C         139.4118  139.3083  166.2263 C.3     1  UNL1        0.0100
     15 C         139.6355  140.3772  167.2546 C.3     1  UNL1        0.0068
     16 C         139.7473  140.0111  168.7050 C.3     1  UNL1        0.0469
     17 C         140.0388  141.0708  169.7257 C.ar    1  UNL1        0.0740
     18 C         140.2249  142.5334  169.4497 C.ar    1  UNL1        0.1378
     19 N         140.4965  143.2206  170.7551 N.ar    1  UNL1       -0.1277
     20 N         140.4783  142.1826  171.8379 N.ar    1  UNL1       -0.0675
     21 N         140.1954  140.8540  171.2017 N.ar    1  UNL1       -0.2605
     22 H         140.1249  139.9912  171.6705 H       1  UNL1        0.1903
     23 O         143.1450  137.0146  157.3596 O.3     1  UNL1       -0.4295
     24 C         143.4785  136.1302  156.1947 C.3     1  UNL1        0.2368
     25 C         143.2607  134.6493  156.2908 C.ar    1  UNL1        0.0230
     26 C         142.1197  134.0098  155.5565 C.ar    1  UNL1        0.0108
     27 C         141.9018  132.5289  155.6526 C.ar    1  UNL1        0.0583
     28 CL        140.7608  131.8894  154.9183 Cl      1  UNL1       -0.0822
     29 C         142.8249  131.6873  156.4831 C.ar    1  UNL1        0.0228
     30 C         143.9659  132.3267  157.2174 C.ar    1  UNL1        0.0583
     31 CL        144.8890  131.4852  158.0479 Cl      1  UNL1       -0.0822
     32 C         144.1838  133.8078  157.1213 C.ar    1  UNL1        0.0108
@<TRIPOS>BOND
     1     9    10    2
     2    10    13    1
     3    13    14    1
     4    14    15    1
     5    15    16    1
     6    16    17    1
     7    17    18   ar
     8    18    19   ar
     9    19    20   ar
    10    20    21   ar
    11    10    11   am
    12    11     1    1
    13     1     2    1
    14     2     3    1
    15     3     4    1
    16     4     5   am
    17     5     6    2
    18     5    23    1
    19    23    24    1
    20    24    25    1
    21    25    26   ar
    22    26    27   ar
    23    27    28    1
    24    27    29   ar
    25    29    30   ar
    26    30    31    1
    27    30    32   ar
    28     4     7    1
    29     7     8    1
    30    21    17   ar
    31     8     1    1
    32    32    25   ar
    33    21    22    1
    34    11    12    1
@<TRIPOS>MOLECULE
*****
 32 34 0 0 0
SMALL
GASTEIGER

@<TRIPOS>ATOM
      1 C         143.0940  140.3032  161.6784 C.3     1  UNL1        0.0750
      2 C         143.5035  138.8641  161.5719 C.3     1  UNL1        0.0412
      3 C         143.3215  138.1264  160.2787 C.3     1  UNL1        0.0984
      4 N         142.7300  138.8277  159.0919 N.am    1  UNL1       -0.2459
      5 C         142.5480  138.0898  157.7986 C.2     1  UNL1        0.4052
      6 O         141.9566  138.7911  156.6119 O.2     1  UNL1       -0.2262
      7 C         142.3206  140.2667  159.1984 C.3     1  UNL1        0.0984
      8 C         142.5026  141.0045  160.4917 C.3     1  UNL1        0.0412
      9 O         145.6321  141.8159  162.1981 O.2     1  UNL1       -0.2751
     10 C         144.5450  141.7974  163.2315 C.2     1  UNL1        0.2224
     11 N         143.2760  141.0411  162.9717 N.am    1  UNL1       -0.3058
     12 H         142.5626  141.0289  163.6500 H       1  UNL1        0.1494
     13 C         144.7270  142.5352  164.5248 C.3     1  UNL1        0.0851
     14 C         143.7417  143.5906  164.9313 C.3     1  UNL1        0.0100
     15 C         143.4714  144.7537  164.0236 C.3     1  UNL1        0.0068
     16 C         142.0650  145.2324  163.8162 C.3     1  UNL1        0.0469
     17 C         141.5018  145.3272  162.4292 C.ar    1  UNL1        0.0740
     18 C         140.1104  145.7572  162.0701 C.ar    1  UNL1        0.1378
     19 N         139.9798  145.7043  160.5767 N.ar    1  UNL1       -0.1277
     20 N         141.2906  145.2417  160.0129 N.ar    1  UNL1       -0.0675
     21 N         142.2312  145.0086  161.1579 N.ar    1  UNL1       -0.2605
     22 H         143.1636  144.7005  161.0872 H       1  UNL1        0.1903
     23 O         142.9575  136.6508  157.6921 O.3     1  UNL1       -0.4295
     24 C         142.4357  135.8036  156.5695 C.3     1  UNL1        0.2368
     25 C         142.7157  134.3302  156.5492 C.ar    1  UNL1        0.0230
     26 C         141.8348  133.4102  155.7569 C.ar    1  UNL1        0.0108
     27 C         142.1148  131.9367  155.7365 C.ar    1  UNL1        0.0583
     28 CL        141.2339  131.0168  154.9442 Cl      1  UNL1       -0.0822
     29 C         143.2758  131.3832  156.5084 C.ar    1  UNL1        0.0228
     30 C         144.1567  132.3031  157.3007 C.ar    1  UNL1        0.0583
     31 CL        145.3176  131.7496  158.0726 Cl      1  UNL1       -0.0822
     32 C         143.8766  133.7766  157.3211 C.ar    1  UNL1        0.0108
@<TRIPOS>BOND
     1     9    10    2
     2    10    13    1
     3    13    14    1
     4    14    15    1
     5    15    16    1
     6    16    17    1
     7    17    18   ar
     8    18    19   ar
     9    19    20   ar
    10    20    21   ar
    11    10    11   am
    12    11     1    1
    13     1     2    1
    14     2     3    1
    15     3     4    1
    16     4     5   am
    17     5     6    2
    18     5    23    1
    19    23    24    1
    20    24    25    1
    21    25    26   ar
    22    26    27   ar
    23    27    28    1
    24    27    29   ar
    25    29    30   ar
    26    30    31    1
    27    30    32   ar
    28     4     7    1
    29     7     8    1
    30    21    17   ar
    31     8     1    1
    32    32    25   ar
    33    21    22    1
    34    11    12    1
@<TRIPOS>MOLECULE
*****
 32 34 0 0 0
SMALL
GASTEIGER

@<TRIPOS>ATOM
      1 C         142.2845  144.2878  161.3299 C.3     1  UNL1        0.0750
      2 C         141.9677  144.8709  162.6751 C.3     1  UNL1        0.0412
      3 C         142.2610  144.0873  163.9200 C.3     1  UNL1        0.0984
      4 N         142.8712  142.7207  163.8197 N.am    1  UNL1       -0.2459
      5 C         143.1646  141.9370  165.0648 C.2     1  UNL1        0.4052
      6 O         143.7747  140.5704  164.9645 O.2     1  UNL1       -0.2262
      7 C         143.1880  142.1376  162.4745 C.3     1  UNL1        0.0984
      8 C         142.8947  142.9212  161.2296 C.3     1  UNL1        0.0412
      9 O         139.5390  144.2137  160.1228 O.2     1  UNL1       -0.2751
     10 C         140.6185  145.0344  159.4814 C.2     1  UNL1        0.2224
     11 N         141.9911  145.0714  160.0849 N.am    1  UNL1       -0.3058
     12 H         142.6996  145.6101  159.6639 H       1  UNL1        0.1494
     13 C         140.3251  145.8180  158.2364 C.3     1  UNL1        0.0851
     14 C         141.1854  145.6434  157.0201 C.3     1  UNL1        0.0100
     15 C         140.8224  146.3343  155.7392 C.3     1  UNL1        0.0068
     16 C         139.4116  146.7872  155.5050 C.3     1  UNL1        0.0469
     17 C         139.0255  148.2104  155.7794 C.ar    1  UNL1        0.0740
     18 C         139.1080  149.3495  154.8070 C.ar    1  UNL1        0.1378
     19 N         138.6225  150.5875  155.5010 N.ar    1  UNL1       -0.1277
     20 N         138.2399  150.2135  156.9024 N.ar    1  UNL1       -0.0675
     21 N         138.4890  148.7443  157.0744 N.ar    1  UNL1       -0.2605
     22 H         138.3285  148.2222  157.8935 H       1  UNL1        0.1903
     23 O         142.8478  142.5201  166.4100 O.3     1  UNL1       -0.4295
     24 C         141.6039  142.0998  167.1355 C.3     1  UNL1        0.2368
     25 C         140.4385  141.5486  166.3688 C.ar    1  UNL1        0.0230
     26 C         139.5627  142.4688  165.5712 C.ar    1  UNL1        0.0108
     27 C         138.3973  141.9176  164.8045 C.ar    1  UNL1        0.0583
     28 CL        137.5215  142.8378  164.0068 Cl      1  UNL1       -0.0822
     29 C         138.1075  140.4461  164.8355 C.ar    1  UNL1        0.0228
     30 C         138.9833  139.5259  165.6332 C.ar    1  UNL1        0.0583
     31 CL        138.6935  138.0545  165.6642 Cl      1  UNL1       -0.0822
     32 C         140.1488  140.0772  166.3999 C.ar    1  UNL1        0.0108
@<TRIPOS>BOND
     1     9    10    2
     2    10    13    1
     3    13    14    1
     4    14    15    1
     5    15    16    1
     6    16    17    1
     7    17    18   ar
     8    18    19   ar
     9    19    20   ar
    10    20    21   ar
    11    10    11   am
    12    11     1    1
    13     1     2    1
    14     2     3    1
    15     3     4    1
    16     4     5   am
    17     5     6    2
    18     5    23    1
    19    23    24    1
    20    24    25    1
    21    25    26   ar
    22    26    27   ar
    23    27    28    1
    24    27    29   ar
    25    29    30   ar
    26    30    31    1
    27    30    32   ar
    28     4     7    1
    29     7     8    1
    30    21    17   ar
    31     8     1    1
    32    32    25   ar
    33    21    22    1
    34    11    12    1
@<TRIPOS>MOLECULE
*****
 32 34 0 0 0
SMALL
GASTEIGER

@<TRIPOS>ATOM
      1 C         142.8108  139.2257  163.9376 C.3     1  UNL1        0.0750
      2 C         141.5554  139.8343  163.3867 C.3     1  UNL1        0.0412
      3 C         141.5525  140.4306  162.0103 C.3     1  UNL1        0.0984
      4 N         142.8049  140.4182  161.1849 N.am    1  UNL1       -0.2459
      5 C         142.8019  141.0145  159.8085 C.2     1  UNL1        0.4052
      6 O         144.0543  141.0022  158.9830 O.2     1  UNL1       -0.2262
      7 C         144.0603  139.8096  161.7358 C.3     1  UNL1        0.0984
      8 C         144.0632  139.2134  163.1122 C.3     1  UNL1        0.0412
      9 O         142.9965  141.0076  166.3440 O.2     1  UNL1       -0.2751
     10 C         142.9067  139.5204  166.5172 C.2     1  UNL1        0.2224
     11 N         142.8138  138.6294  165.3140 N.am    1  UNL1       -0.3058
     12 H         142.7549  137.6533  165.4277 H       1  UNL1        0.1494
     13 C         142.9097  138.9240  167.8936 C.3     1  UNL1        0.0851
     14 C         142.5338  139.7661  169.0766 C.3     1  UNL1        0.0100
     15 C         141.1131  139.7925  169.5573 C.3     1  UNL1        0.0068
     16 C         140.0720  140.5419  168.7797 C.3     1  UNL1        0.0469
     17 C         139.1666  139.8067  167.8365 C.ar    1  UNL1        0.0740
     18 C         139.2910  139.7717  166.3421 C.ar    1  UNL1        0.1378
     19 N         138.1791  138.9208  165.8041 N.ar    1  UNL1       -0.1277
     20 N         137.3675  138.4298  166.9661 N.ar    1  UNL1       -0.0675
     21 N         137.9778  138.9773  168.2222 N.ar    1  UNL1       -0.2605
     22 H         137.6548  138.8200  169.1388 H       1  UNL1        0.1903
     23 O         141.5465  141.6231  159.2575 O.3     1  UNL1       -0.4295
     24 C         141.3053  143.0974  159.3936 C.3     1  UNL1        0.2368
     25 C         140.9797  143.6834  160.7354 C.ar    1  UNL1        0.0230
     26 C         142.0790  144.2032  161.6136 C.ar    1  UNL1        0.0108
     27 C         141.7534  144.7892  162.9554 C.ar    1  UNL1        0.0583
     28 CL        142.8528  145.3090  163.8336 Cl      1  UNL1       -0.0822
     29 C         140.3284  144.8553  163.4192 C.ar    1  UNL1        0.0228
     30 C         139.2290  144.3355  162.5410 C.ar    1  UNL1        0.0583
     31 CL        137.8041  144.4016  163.0047 Cl      1  UNL1       -0.0822
     32 C         139.5547  143.7495  161.1991 C.ar    1  UNL1        0.0108
@<TRIPOS>BOND
     1     9    10    2
     2    10    13    1
     3    13    14    1
     4    14    15    1
     5    15    16    1
     6    16    17    1
     7    17    18   ar
     8    18    19   ar
     9    19    20   ar
    10    20    21   ar
    11    10    11   am
    12    11     1    1
    13     1     2    1
    14     2     3    1
    15     3     4    1
    16     4     5   am
    17     5     6    2
    18     5    23    1
    19    23    24    1
    20    24    25    1
    21    25    26   ar
    22    26    27   ar
    23    27    28    1
    24    27    29   ar
    25    29    30   ar
    26    30    31    1
    27    30    32   ar
    28     4     7    1
    29     7     8    1
    30    21    17   ar
    31     8     1    1
    32    32    25   ar
    33    21    22    1
    34    11    12    1
@<TRIPOS>MOLECULE
*****
 32 34 0 0 0
SMALL
GASTEIGER

@<TRIPOS>ATOM
      1 C         139.9779  144.5277  160.0647 C.3     1  UNL1        0.0750
      2 C         139.5023  143.1955  160.5634 C.3     1  UNL1        0.0412
      3 C         139.1007  143.0320  161.9993 C.3     1  UNL1        0.0984
      4 N         139.1748  144.2008  162.9366 N.am    1  UNL1       -0.2459
      5 C         138.7732  144.0372  164.3726 C.2     1  UNL1        0.4052
      6 O         138.8473  145.2060  165.3098 O.2     1  UNL1       -0.2262
      7 C         139.6505  145.5330  162.4379 C.3     1  UNL1        0.0984
      8 C         140.0520  145.6965  161.0019 C.3     1  UNL1        0.0412
      9 O         142.8436  144.1589  159.2571 O.2     1  UNL1       -0.2751
     10 C         141.8123  144.5069  158.2249 C.2     1  UNL1        0.2224
     11 N         140.3795  144.6913  158.6287 N.am    1  UNL1       -0.3058
     12 H         139.7027  144.9197  157.9512 H       1  UNL1        0.1494
     13 C         142.2139  144.6704  156.7889 C.3     1  UNL1        0.0851
     14 C         141.1632  144.7731  155.7233 C.3     1  UNL1        0.0100
     15 C         140.7779  146.1158  155.1769 C.3     1  UNL1        0.0068
     16 C         139.3759  146.6210  155.3481 C.3     1  UNL1        0.0469
     17 C         139.1240  148.0891  155.5242 C.ar    1  UNL1        0.0740
     18 C         139.5012  149.1709  154.5560 C.ar    1  UNL1        0.1378
     19 N         139.0610  150.4836  155.1329 N.ar    1  UNL1       -0.1277
     20 N         138.4116  150.2132  156.4578 N.ar    1  UNL1       -0.0675
     21 N         138.4506  148.7333  156.6996 N.ar    1  UNL1       -0.2605
     22 H         138.0963  148.2668  157.4909 H       1  UNL1        0.1903
     23 O         138.2975  142.7049  164.8713 O.3     1  UNL1       -0.4295
     24 C         139.2513  141.7812  165.5693 C.3     1  UNL1        0.2368
     25 C         139.1330  140.2980  165.3799 C.ar    1  UNL1        0.0230
     26 C         139.8649  139.6244  164.2572 C.ar    1  UNL1        0.0108
     27 C         139.7466  138.1412  164.0678 C.ar    1  UNL1        0.0583
     28 CL        140.4785  137.4676  162.9451 Cl      1  UNL1       -0.0822
     29 C         138.8962  137.3314  165.0013 C.ar    1  UNL1        0.0228
     30 C         138.1643  138.0049  166.1240 C.ar    1  UNL1        0.0583
     31 CL        137.3140  137.1952  167.0574 Cl      1  UNL1       -0.0822
     32 C         138.2827  139.4883  166.3133 C.ar    1  UNL1        0.0108
@<TRIPOS>BOND
     1     9    10    2
     2    10    13    1
     3    13    14    1
     4    14    15    1
     5    15    16    1
     6    16    17    1
     7    17    18   ar
     8    18    19   ar
     9    19    20   ar
    10    20    21   ar
    11    10    11   am
    12    11     1    1
    13     1     2    1
    14     2     3    1
    15     3     4    1
    16     4     5   am
    17     5     6    2
    18     5    23    1
    19    23    24    1
    20    24    25    1
    21    25    26   ar
    22    26    27   ar
    23    27    28    1
    24    27    29   ar
    25    29    30   ar
    26    30    31    1
    27    30    32   ar
    28     4     7    1
    29     7     8    1
    30    21    17   ar
    31     8     1    1
    32    32    25   ar
    33    21    22    1
    34    11    12    1
@<TRIPOS>MOLECULE
*****
 32 34 0 0 0
SMALL
GASTEIGER

@<TRIPOS>ATOM
      1 C         139.4904  138.1524  163.0923 C.3     1  UNL1        0.0750
      2 C         140.9010  138.3197  162.6107 C.3     1  UNL1        0.0412
      3 C         141.1829  138.4405  161.1424 C.3     1  UNL1        0.0984
      4 N         140.0540  138.3939  160.1557 N.am    1  UNL1       -0.2459
      5 C         140.3359  138.5147  158.6874 C.2     1  UNL1        0.4052
      6 O         139.2071  138.4682  157.7007 O.2     1  UNL1       -0.2262
      7 C         138.6434  138.2266  160.6373 C.3     1  UNL1        0.0984
      8 C         138.3615  138.1058  162.1056 C.3     1  UNL1        0.0412
      9 O         138.1698  140.4130  164.5572 O.2     1  UNL1       -0.2751
     10 C         138.5482  139.1619  165.2931 C.2     1  UNL1        0.2224
     11 N         139.2084  138.0316  164.5607 N.am    1  UNL1       -0.3058
     12 H         139.4568  137.2105  165.0437 H       1  UNL1        0.1494
     13 C         138.2663  139.0411  166.7614 C.3     1  UNL1        0.0851
     14 C         139.1303  139.7626  167.7528 C.3     1  UNL1        0.0100
     15 C         140.3060  140.5646  167.2792 C.3     1  UNL1        0.0068
     16 C         140.7211  141.7987  168.0241 C.3     1  UNL1        0.0469
     17 C         140.8227  141.7731  169.5204 C.ar    1  UNL1        0.0740
     18 C         139.9394  142.5178  170.4770 C.ar    1  UNL1        0.1378
     19 N         140.3963  142.2032  171.8706 N.ar    1  UNL1       -0.1277
     20 N         141.5620  141.2639  171.7753 N.ar    1  UNL1       -0.0675
     21 N         141.8255  140.9981  170.3228 N.ar    1  UNL1       -0.2605
     22 H         142.5325  140.4170  169.9598 H       1  UNL1        0.1903
     23 O         141.7466  138.6820  158.2058 O.3     1  UNL1       -0.4295
     24 C         142.6509  137.4895  158.1044 C.3     1  UNL1        0.2368
     25 C         142.6962  136.6882  156.8372 C.ar    1  UNL1        0.0230
     26 C         143.3106  135.3198  156.8367 C.ar    1  UNL1        0.0108
     27 C         143.3559  134.5185  155.5695 C.ar    1  UNL1        0.0583
     28 CL        143.9703  133.1501  155.5690 Cl      1  UNL1       -0.0822
     29 C         142.7866  135.0855  154.3028 C.ar    1  UNL1        0.0228
     30 C         142.1722  136.4539  154.3033 C.ar    1  UNL1        0.0583
     31 CL        141.6030  137.0209  153.0367 Cl      1  UNL1       -0.0822
     32 C         142.1270  137.2552  155.5706 C.ar    1  UNL1        0.0108
@<TRIPOS>BOND
     1     9    10    2
     2    10    13    1
     3    13    14    1
     4    14    15    1
     5    15    16    1
     6    16    17    1
     7    17    18   ar
     8    18    19   ar
     9    19    20   ar
    10    20    21   ar
    11    10    11   am
    12    11     1    1
    13     1     2    1
    14     2     3    1
    15     3     4    1
    16     4     5   am
    17     5     6    2
    18     5    23    1
    19    23    24    1
    20    24    25    1
    21    25    26   ar
    22    26    27   ar
    23    27    28    1
    24    27    29   ar
    25    29    30   ar
    26    30    31    1
    27    30    32   ar
    28     4     7    1
    29     7     8    1
    30    21    17   ar
    31     8     1    1
    32    32    25   ar
    33    21    22    1
    34    11    12    1
@<TRIPOS>MOLECULE
*****
 32 34 0 0 0
SMALL
GASTEIGER

@<TRIPOS>ATOM
      1 C         144.6353  142.1717  162.6596 C.3     1  UNL1        0.0750
      2 C         144.0635  143.2297  163.5559 C.3     1  UNL1        0.0412
      3 C         143.5281  142.8589  164.9071 C.3     1  UNL1        0.0984
      4 N         143.5645  141.4300  165.3620 N.am    1  UNL1       -0.2459
      5 C         143.0291  141.0592  166.7133 C.2     1  UNL1        0.4052
      6 O         143.0655  139.6303  167.1682 O.2     1  UNL1       -0.2262
      7 C         144.1364  140.3719  164.4657 C.3     1  UNL1        0.0984
      8 C         144.6718  140.7428  163.1145 C.3     1  UNL1        0.0412
      9 O         142.9590  141.7348  160.2103 O.2     1  UNL1       -0.2751
     10 C         144.3326  142.3240  160.0837 C.2     1  UNL1        0.2224
     11 N         145.1707  142.5425  161.3083 N.am    1  UNL1       -0.3058
     12 H         146.0723  142.9292  161.2252 H       1  UNL1        0.1494
     13 C         144.8680  142.6949  158.7324 C.3     1  UNL1        0.0851
     14 C         144.0102  142.5261  157.5136 C.3     1  UNL1        0.0100
     15 C         142.6582  143.1730  157.4527 C.3     1  UNL1        0.0068
     16 C         142.4900  144.6009  157.8805 C.3     1  UNL1        0.0469
     17 C         141.6396  144.9319  159.0709 C.ar    1  UNL1        0.0740
     18 C         140.2104  145.3861  159.0346 C.ar    1  UNL1        0.1378
     19 N         139.7565  145.6018  160.4479 N.ar    1  UNL1       -0.1277
     20 N         140.9052  145.2809  161.3577 N.ar    1  UNL1       -0.0675
     21 N         142.0689  144.8669  160.5067 N.ar    1  UNL1       -0.2605
     22 H         142.9584  144.5994  160.8331 H       1  UNL1        0.1903
     23 O         142.4572  142.1172  167.6096 O.3     1  UNL1       -0.4295
     24 C         140.9792  142.1694  167.8602 C.3     1  UNL1        0.2368
     25 C         140.0307  141.5342  166.8872 C.ar    1  UNL1        0.0230
     26 C         139.6608  142.2517  165.6230 C.ar    1  UNL1        0.0108
     27 C         138.7123  141.6164  164.6500 C.ar    1  UNL1        0.0583
     28 CL        138.3424  142.3340  163.3858 Cl      1  UNL1       -0.0822
     29 C         138.1336  140.2635  164.9413 C.ar    1  UNL1        0.0228
     30 C         138.5034  139.5459  166.2056 C.ar    1  UNL1        0.0583
     31 CL        137.9247  138.1931  166.4969 Cl      1  UNL1       -0.0822
     32 C         139.4520  140.1813  167.1785 C.ar    1  UNL1        0.0108
@<TRIPOS>BOND
     1     9    10    2
     2    10    13    1
     3    13    14    1
     4    14    15    1
     5    15    16    1
     6    16    17    1
     7    17    18   ar
     8    18    19   ar
     9    19    20   ar
    10    20    21   ar
    11    10    11   am
    12    11     1    1
    13     1     2    1
    14     2     3    1
    15     3     4    1
    16     4     5   am
    17     5     6    2
    18     5    23    1
    19    23    24    1
    20    24    25    1
    21    25    26   ar
    22    26    27   ar
    23    27    28    1
    24    27    29   ar
    25    29    30   ar
    26    30    31    1
    27    30    32   ar
    28     4     7    1
    29     7     8    1
    30    21    17   ar
    31     8     1    1
    32    32    25   ar
    33    21    22    1
    34    11    12    1
