@<TRIPOS>MOLECULE
*****
 36 41 0 0 0
SMALL
GASTEIGER

@<TRIPOS>ATOM
      1 C         143.3043  138.9185  164.6392 C.ar    1  UNL1       -0.0211
      2 C         144.2560  140.0033  164.2302 C.ar    1  UNL1       -0.0045
      3 C         144.4946  140.2827  162.7759 C.ar    1  UNL1       -0.0027
      4 C         143.7814  139.4772  161.7306 C.ar    1  UNL1        0.0019
      5 C         142.8297  138.3924  162.1397 C.ar    1  UNL1       -0.0201
      6 C         142.5911  138.1130  163.5939 C.ar    1  UNL1       -0.0084
      7 C         142.2750  137.7683  160.8935 C.3     1  UNL1        0.0519
      8 C         142.8839  138.4674  159.7143 C.2     1  UNL1        0.0074
      9 C         142.9174  138.5137  158.2154 C.2     1  UNL1        0.0976
     10 N         143.8692  139.5985  157.8064 N.2     1  UNL1       -0.1526
     11 N         144.4238  140.2226  159.0525 N.2     1  UNL1       -0.1678
     12 C         143.8150  139.5236  160.2317 C.3     1  UNL1        0.1672
     13 C         142.1363  137.6303  157.2883 C.ar    1  UNL1        0.0265
     14 C         140.8066  137.9537  156.6740 C.ar    1  UNL1        0.0376
     15 S         140.3963  136.7917  155.8188 S.2     1  UNL1       -0.0780
     16 C         141.4723  135.7502  155.9046 C.ar    1  UNL1        0.0711
     17 C         142.5477  136.2685  156.8128 C.ar    1  UNL1        0.0168
     18 C         141.4729  134.4234  155.2050 C.1     1  UNL1       -0.0543
     19 C         141.4736  133.0965  154.5054 C.1     1  UNL1       -0.0388
     20 C         141.4742  131.7696  153.8058 C.3     1  UNL1        0.2814
     21 O         142.5929  130.7984  154.0407 O.3     1  UNL1       -0.4612
     22 C         143.3119  130.7867  155.3571 C.ar    1  UNL1        0.1400
     23 C         142.8618  129.8623  156.4493 C.ar    1  UNL1        0.0369
     24 C         143.5807  129.8505  157.7657 C.ar    1  UNL1        0.0031
     25 C         144.7498  130.7631  157.9899 C.ar    1  UNL1        0.0002
     26 C         145.2000  131.6875  156.8977 C.ar    1  UNL1        0.0031
     27 C         144.4810  131.6992  155.5813 C.ar    1  UNL1        0.0369
     28 C         143.0657  138.6391  166.0936 C.3     1  UNL1        0.0437
     29 C         142.2944  139.6178  166.9286 C.3     1  UNL1        0.0769
     30 C         137.7857  142.7397  164.4943 C.3     1  UNL1        0.0897
     31 N         138.9129  141.9593  165.1029 N.3     1  UNL1       -0.2691
     32 C         138.7503  140.4925  165.3717 C.3     1  UNL1        0.0897
     33 C         139.8774  139.7120  165.9802 C.3     1  UNL1        0.0897
     34 N         141.1672  140.3983  166.3200 N.3     1  UNL1       -0.2700
     35 C         141.3298  141.8650  166.0513 C.3     1  UNL1        0.0897
     36 C         140.2027  142.6455  165.4427 C.3     1  UNL1        0.0897
@<TRIPOS>BOND
     1    30    31    1
     2    31    32    1
     3    32    33    1
     4    33    34    1
     5    34    29    1
     6    29    28    1
     7    28     1    1
     8     1     2   ar
     9     2     3   ar
    10     3     4   ar
    11     4     5   ar
    12     5     6   ar
    13     5     7    1
    14     7     8    1
    15     8     9    2
    16     9    13    1
    17    13    14   ar
    18    14    15   ar
    19    15    16   ar
    20    16    18    1
    21    18    19    3
    22    19    20    1
    23    20    21    1
    24    21    22    1
    25    22    23   ar
    26    23    24   ar
    27    24    25   ar
    28    25    26   ar
    29    26    27   ar
    30    16    17   ar
    31     9    10    1
    32    10    11    2
    33    11    12    1
    34    34    35    1
    35    35    36    1
    36    36    31    1
    37     6     1   ar
    38    12     8    1
    39    12     4    1
    40    17    13   ar
    41    27    22   ar
@<TRIPOS>MOLECULE
*****
 36 41 0 0 0
SMALL
GASTEIGER

@<TRIPOS>ATOM
      1 C         137.1096  141.9299  155.6280 C.ar    1  UNL1       -0.0211
      2 C         138.0172  142.8955  154.9254 C.ar    1  UNL1       -0.0045
      3 C         139.0345  143.6730  155.7069 C.ar    1  UNL1       -0.0027
      4 C         139.1441  143.4848  157.1910 C.ar    1  UNL1        0.0019
      5 C         138.2365  142.5191  157.8936 C.ar    1  UNL1       -0.0201
      6 C         137.2193  141.7417  157.1121 C.ar    1  UNL1       -0.0084
      7 C         138.5749  142.5443  159.3547 C.3     1  UNL1        0.0519
      8 C         139.6916  143.5255  159.5551 C.2     1  UNL1        0.0074
      9 C         140.5908  144.1475  160.5820 C.2     1  UNL1        0.0976
     10 N         141.4984  145.1131  159.8794 N.2     1  UNL1       -0.1526
     11 N         141.1601  145.0880  158.4182 N.2     1  UNL1       -0.1678
     12 C         140.0434  144.1068  158.2178 C.3     1  UNL1        0.1672
     13 C         140.5837  143.8551  162.0532 C.ar    1  UNL1        0.0265
     14 C         141.0717  144.7708  163.1365 C.ar    1  UNL1        0.0376
     15 S         140.8769  144.0773  164.4522 S.2     1  UNL1       -0.0780
     16 C         140.2686  142.7330  164.1821 C.ar    1  UNL1        0.0711
     17 C         140.0874  142.5957  162.6995 C.ar    1  UNL1        0.0168
     18 C         139.9054  141.7064  165.2136 C.1     1  UNL1       -0.0543
     19 C         139.5420  140.6796  166.2450 C.1     1  UNL1       -0.0388
     20 C         139.1788  139.6529  167.2765 C.3     1  UNL1        0.2814
     21 O         139.4606  139.9141  168.7264 O.3     1  UNL1       -0.4612
     22 C         140.5765  140.8364  169.1192 C.ar    1  UNL1        0.1400
     23 C         140.2760  142.2531  169.5103 C.ar    1  UNL1        0.0369
     24 C         141.3918  143.1754  169.9031 C.ar    1  UNL1        0.0031
     25 C         142.8079  142.6811  169.9049 C.ar    1  UNL1        0.0002
     26 C         143.1084  141.2645  169.5138 C.ar    1  UNL1        0.0031
     27 C         141.9926  140.3422  169.1210 C.ar    1  UNL1        0.0369
     28 C         136.0923  141.1523  154.8465 C.3     1  UNL1        0.0437
     29 C         134.6774  141.6427  154.7610 C.3     1  UNL1        0.0769
     30 C         130.3811  138.9883  158.0008 C.3     1  UNL1        0.0897
     31 N         131.4552  139.6519  157.1908 N.3     1  UNL1       -0.2691
     32 C         132.8916  139.2706  157.3942 C.3     1  UNL1        0.0897
     33 C         133.9656  139.9342  156.5843 C.3     1  UNL1        0.0897
     34 N         133.6033  140.9791  155.5710 N.3     1  UNL1       -0.2700
     35 C         132.1669  141.3604  155.3676 C.3     1  UNL1        0.0897
     36 C         131.0928  140.6968  156.1775 C.3     1  UNL1        0.0897
@<TRIPOS>BOND
     1    30    31    1
     2    31    32    1
     3    32    33    1
     4    33    34    1
     5    34    29    1
     6    29    28    1
     7    28     1    1
     8     1     2   ar
     9     2     3   ar
    10     3     4   ar
    11     4     5   ar
    12     5     6   ar
    13     5     7    1
    14     7     8    1
    15     8     9    2
    16     9    13    1
    17    13    14   ar
    18    14    15   ar
    19    15    16   ar
    20    16    18    1
    21    18    19    3
    22    19    20    1
    23    20    21    1
    24    21    22    1
    25    22    23   ar
    26    23    24   ar
    27    24    25   ar
    28    25    26   ar
    29    26    27   ar
    30    16    17   ar
    31     9    10    1
    32    10    11    2
    33    11    12    1
    34    34    35    1
    35    35    36    1
    36    36    31    1
    37     6     1   ar
    38    12     8    1
    39    12     4    1
    40    17    13   ar
    41    27    22   ar
@<TRIPOS>MOLECULE
*****
 36 41 0 0 0
SMALL
GASTEIGER

@<TRIPOS>ATOM
      1 C         138.2805  140.1880  164.6988 C.ar    1  UNL1       -0.0211
      2 C         138.1352  141.6752  164.5683 C.ar    1  UNL1       -0.0045
      3 C         138.1704  142.3161  163.2125 C.ar    1  UNL1       -0.0027
      4 C         138.3508  141.4697  161.9874 C.ar    1  UNL1        0.0019
      5 C         138.4961  139.9825  162.1179 C.ar    1  UNL1       -0.0201
      6 C         138.4609  139.3417  163.4736 C.ar    1  UNL1       -0.0084
      7 C         138.6593  139.4101  160.7411 C.3     1  UNL1        0.0519
      8 C         138.6150  140.5435  159.7596 C.2     1  UNL1        0.0074
      9 C         138.6885  140.8903  158.3020 C.2     1  UNL1        0.0976
     10 N         138.5432  142.3774  158.1715 N.2     1  UNL1       -0.1526
     11 N         138.3799  142.9498  159.5483 N.2     1  UNL1       -0.1678
     12 C         138.4243  141.8165  160.5298 C.3     1  UNL1        0.1672
     13 C         138.8745  139.9201  157.1732 C.ar    1  UNL1        0.0265
     14 C         138.3118  140.0587  155.7897 C.ar    1  UNL1        0.0376
     15 S         138.7455  138.8652  154.9912 S.2     1  UNL1       -0.0780
     16 C         139.5763  137.9890  155.8813 C.ar    1  UNL1        0.0711
     17 C         139.6560  138.6410  157.2298 C.ar    1  UNL1        0.0168
     18 C         140.2151  136.6892  155.4912 C.1     1  UNL1       -0.0543
     19 C         140.8540  135.3892  155.1011 C.1     1  UNL1       -0.0388
     20 C         141.4928  134.0894  154.7111 C.3     1  UNL1        0.2814
     21 O         141.4390  132.9171  155.6454 O.3     1  UNL1       -0.4612
     22 C         142.6646  132.5088  156.4079 C.ar    1  UNL1        0.1400
     23 C         143.1281  131.0826  156.3747 C.ar    1  UNL1        0.0369
     24 C         144.3536  130.6744  157.1371 C.ar    1  UNL1        0.0031
     25 C         145.1156  131.6923  157.9328 C.ar    1  UNL1        0.0002
     26 C         144.6521  133.1185  157.9661 C.ar    1  UNL1        0.0031
     27 C         143.4265  133.5267  157.2036 C.ar    1  UNL1        0.0369
     28 C         138.2453  139.5471  166.0546 C.3     1  UNL1        0.0437
     29 C         139.4968  139.4635  166.8773 C.3     1  UNL1        0.0769
     30 C         144.8574  140.0949  164.2572 C.3     1  UNL1        0.0897
     31 N         143.5172  139.9370  164.9122 N.3     1  UNL1       -0.2691
     32 C         142.9159  141.0802  165.6750 C.3     1  UNL1        0.0897
     33 C         141.5758  140.9223  166.3300 C.3     1  UNL1        0.0897
     34 N         140.8370  139.6214  166.2223 N.3     1  UNL1       -0.2700
     35 C         141.4382  138.4783  165.4596 C.3     1  UNL1        0.0897
     36 C         142.7784  138.6361  164.8045 C.3     1  UNL1        0.0897
@<TRIPOS>BOND
     1    30    31    1
     2    31    32    1
     3    32    33    1
     4    33    34    1
     5    34    29    1
     6    29    28    1
     7    28     1    1
     8     1     2   ar
     9     2     3   ar
    10     3     4   ar
    11     4     5   ar
    12     5     6   ar
    13     5     7    1
    14     7     8    1
    15     8     9    2
    16     9    13    1
    17    13    14   ar
    18    14    15   ar
    19    15    16   ar
    20    16    18    1
    21    18    19    3
    22    19    20    1
    23    20    21    1
    24    21    22    1
    25    22    23   ar
    26    23    24   ar
    27    24    25   ar
    28    25    26   ar
    29    26    27   ar
    30    16    17   ar
    31     9    10    1
    32    10    11    2
    33    11    12    1
    34    34    35    1
    35    35    36    1
    36    36    31    1
    37     6     1   ar
    38    12     8    1
    39    12     4    1
    40    17    13   ar
    41    27    22   ar
@<TRIPOS>MOLECULE
*****
 36 41 0 0 0
SMALL
GASTEIGER

@<TRIPOS>ATOM
      1 C         139.6096  137.6753  164.3261 C.ar    1  UNL1       -0.0211
      2 C         141.0923  137.5502  164.5151 C.ar    1  UNL1       -0.0045
      3 C         142.0132  137.6988  163.3404 C.ar    1  UNL1       -0.0027
      4 C         141.4513  137.9725  161.9768 C.ar    1  UNL1        0.0019
      5 C         139.9686  138.0977  161.7879 C.ar    1  UNL1       -0.0201
      6 C         139.0477  137.9491  162.9625 C.ar    1  UNL1       -0.0084
      7 C         139.7076  138.3682  160.3358 C.3     1  UNL1        0.0519
      8 C         141.0290  138.4103  159.6272 C.2     1  UNL1        0.0074
      9 C         141.6844  138.6035  158.2919 C.2     1  UNL1        0.0976
     10 N         143.1671  138.4783  158.4808 N.2     1  UNL1       -0.1526
     11 N         143.4281  138.2078  159.9329 N.2     1  UNL1       -0.1678
     12 C         142.1068  138.1657  160.6414 C.3     1  UNL1        0.1672
     13 C         140.9805  138.8743  156.9952 C.ar    1  UNL1        0.0265
     14 C         141.5705  138.7262  155.6241 C.ar    1  UNL1        0.0376
     15 S         140.5177  139.1012  154.6236 S.2     1  UNL1       -0.0780
     16 C         139.2771  139.4810  155.3763 C.ar    1  UNL1        0.0711
     17 C         139.5632  139.3408  156.8421 C.ar    1  UNL1        0.0168
     18 C         137.9785  139.9234  154.7698 C.1     1  UNL1       -0.0543
     19 C         136.6798  140.3657  154.1633 C.1     1  UNL1       -0.0388
     20 C         135.3812  140.8081  153.5568 C.3     1  UNL1        0.2814
     21 O         134.3774  141.5478  154.3907 O.3     1  UNL1       -0.4612
     22 C         133.4055  140.7879  155.2440 C.ar    1  UNL1        0.1400
     23 C         133.8245  139.5035  155.8959 C.ar    1  UNL1        0.0369
     24 C         132.8527  138.7437  156.7492 C.ar    1  UNL1        0.0031
     25 C         131.4620  139.2681  156.9506 C.ar    1  UNL1        0.0002
     26 C         131.0430  140.5524  156.2987 C.ar    1  UNL1        0.0031
     27 C         132.0147  141.3123  155.4454 C.ar    1  UNL1        0.0369
     28 C         138.6886  137.5268  165.5008 C.3     1  UNL1        0.0437
     29 C         138.1013  138.7437  166.1520 C.3     1  UNL1        0.0769
     30 C         140.1507  144.1976  164.7185 C.3     1  UNL1        0.0897
     31 N         139.6383  142.8341  165.0769 N.3     1  UNL1       -0.2691
     32 C         140.2962  142.0501  166.1734 C.3     1  UNL1        0.0897
     33 C         139.7838  140.6866  166.5318 C.3     1  UNL1        0.0897
     34 N         138.6137  140.1072  165.7936 N.3     1  UNL1       -0.2700
     35 C         137.9558  140.8913  164.6971 C.3     1  UNL1        0.0897
     36 C         138.4681  142.2547  164.3387 C.3     1  UNL1        0.0897
@<TRIPOS>BOND
     1    30    31    1
     2    31    32    1
     3    32    33    1
     4    33    34    1
     5    34    29    1
     6    29    28    1
     7    28     1    1
     8     1     2   ar
     9     2     3   ar
    10     3     4   ar
    11     4     5   ar
    12     5     6   ar
    13     5     7    1
    14     7     8    1
    15     8     9    2
    16     9    13    1
    17    13    14   ar
    18    14    15   ar
    19    15    16   ar
    20    16    18    1
    21    18    19    3
    22    19    20    1
    23    20    21    1
    24    21    22    1
    25    22    23   ar
    26    23    24   ar
    27    24    25   ar
    28    25    26   ar
    29    26    27   ar
    30    16    17   ar
    31     9    10    1
    32    10    11    2
    33    11    12    1
    34    34    35    1
    35    35    36    1
    36    36    31    1
    37     6     1   ar
    38    12     8    1
    39    12     4    1
    40    17    13   ar
    41    27    22   ar
@<TRIPOS>MOLECULE
*****
 36 41 0 0 0
SMALL
GASTEIGER

@<TRIPOS>ATOM
      1 C         143.9380  131.0479  155.1845 C.ar    1  UNL1       -0.0211
      2 C         142.7544  131.2647  154.2891 C.ar    1  UNL1       -0.0045
      3 C         141.9769  132.5449  154.3705 C.ar    1  UNL1       -0.0027
      4 C         142.3831  133.6082  155.3474 C.ar    1  UNL1        0.0019
      5 C         143.5668  133.3914  156.2428 C.ar    1  UNL1       -0.0201
      6 C         144.3443  132.1112  156.1614 C.ar    1  UNL1       -0.0084
      7 C         143.7287  134.6112  157.1007 C.3     1  UNL1        0.0519
      8 C         142.6450  135.5819  156.7354 C.2     1  UNL1        0.0074
      9 C         142.0754  136.9357  157.0398 C.2     1  UNL1        0.0976
     10 N         140.8917  137.1526  156.1444 N.2     1  UNL1       -0.1526
     11 N         140.7298  135.9328  155.2866 N.2     1  UNL1       -0.1678
     12 C         141.8134  134.9621  155.6518 C.3     1  UNL1        0.1672
     13 C         142.5977  137.9029  158.0605 C.ar    1  UNL1        0.0265
     14 C         143.0258  139.3164  157.7978 C.ar    1  UNL1        0.0376
     15 S         143.4763  139.9134  159.0980 S.2     1  UNL1       -0.0780
     16 C         143.3268  138.8690  160.1643 C.ar    1  UNL1        0.0711
     17 C         142.7838  137.6264  159.5230 C.ar    1  UNL1        0.0168
     18 C         143.6614  139.0375  161.6167 C.1     1  UNL1       -0.0543
     19 C         143.9961  139.2060  163.0692 C.1     1  UNL1       -0.0388
     20 C         144.3308  139.3745  164.5216 C.3     1  UNL1        0.2814
     21 O         143.5854  138.5883  165.5591 O.3     1  UNL1       -0.4612
     22 C         142.0856  138.5656  165.5488 C.ar    1  UNL1        0.1400
     23 C         141.3566  137.5542  164.7148 C.ar    1  UNL1        0.0369
     24 C         139.8568  137.5314  164.7044 C.ar    1  UNL1        0.0031
     25 C         139.0861  138.5201  165.5281 C.ar    1  UNL1        0.0002
     26 C         139.8151  139.5315  166.3621 C.ar    1  UNL1        0.0031
     27 C         141.3148  139.5543  166.3724 C.ar    1  UNL1        0.0369
     28 C         144.7156  129.7677  155.1030 C.3     1  UNL1        0.0437
     29 C         144.1707  128.5182  155.7289 C.3     1  UNL1        0.0769
     30 C         145.2959  127.3158  161.4985 C.3     1  UNL1        0.0897
     31 N         145.0146  127.6164  160.0560 N.3     1  UNL1       -0.2691
     32 C         145.8116  126.9407  158.9799 C.3     1  UNL1        0.0897
     33 C         145.5303  127.2413  157.5375 C.3     1  UNL1        0.0897
     34 N         144.4520  128.2175  157.1713 N.3     1  UNL1       -0.2700
     35 C         143.6550  128.8932  158.2475 C.3     1  UNL1        0.0897
     36 C         143.9363  128.5927  159.6899 C.3     1  UNL1        0.0897
@<TRIPOS>BOND
     1    30    31    1
     2    31    32    1
     3    32    33    1
     4    33    34    1
     5    34    29    1
     6    29    28    1
     7    28     1    1
     8     1     2   ar
     9     2     3   ar
    10     3     4   ar
    11     4     5   ar
    12     5     6   ar
    13     5     7    1
    14     7     8    1
    15     8     9    2
    16     9    13    1
    17    13    14   ar
    18    14    15   ar
    19    15    16   ar
    20    16    18    1
    21    18    19    3
    22    19    20    1
    23    20    21    1
    24    21    22    1
    25    22    23   ar
    26    23    24   ar
    27    24    25   ar
    28    25    26   ar
    29    26    27   ar
    30    16    17   ar
    31     9    10    1
    32    10    11    2
    33    11    12    1
    34    34    35    1
    35    35    36    1
    36    36    31    1
    37     6     1   ar
    38    12     8    1
    39    12     4    1
    40    17    13   ar
    41    27    22   ar
@<TRIPOS>MOLECULE
*****
 36 41 0 0 0
SMALL
GASTEIGER

@<TRIPOS>ATOM
      1 C         136.5694  142.6901  155.5909 C.ar    1  UNL1       -0.0211
      2 C         137.0279  143.9374  154.8953 C.ar    1  UNL1       -0.0045
      3 C         138.2117  144.6958  155.4182 C.ar    1  UNL1       -0.0027
      4 C         138.9370  144.2068  156.6367 C.ar    1  UNL1        0.0019
      5 C         138.4785  142.9595  157.3324 C.ar    1  UNL1       -0.0201
      6 C         137.2947  142.2012  156.8095 C.ar    1  UNL1       -0.0084
      7 C         139.3851  142.7220  158.5035 C.3     1  UNL1        0.0519
      8 C         140.4040  143.8226  158.5317 C.2     1  UNL1        0.0074
      9 C         141.5939  144.3560  159.2730 C.2     1  UNL1        0.0976
     10 N         142.0524  145.6033  158.5773 N.2     1  UNL1       -0.1526
     11 N         141.1458  145.8408  157.4062 N.2     1  UNL1       -0.1678
     12 C         140.1270  144.7403  157.3780 C.3     1  UNL1        0.1672
     13 C         142.2161  143.7487  160.4953 C.ar    1  UNL1        0.0265
     14 C         143.5857  143.1425  160.5789 C.ar    1  UNL1        0.0376
     15 S         143.7940  142.6601  161.9839 S.2     1  UNL1       -0.0780
     16 C         142.5532  142.9681  162.7685 C.ar    1  UNL1        0.0711
     17 C         141.5781  143.6408  161.8485 C.ar    1  UNL1        0.0168
     18 C         142.3273  142.6578  164.2185 C.1     1  UNL1       -0.0543
     19 C         142.1014  142.3475  165.6687 C.1     1  UNL1       -0.0388
     20 C         141.8754  142.0372  167.1187 C.3     1  UNL1        0.2814
     21 O         141.6184  140.6244  167.5521 O.3     1  UNL1       -0.4612
     22 C         140.7009  139.7491  166.7507 C.ar    1  UNL1        0.1400
     23 C         139.2215  139.7906  166.9954 C.ar    1  UNL1        0.0369
     24 C         138.3040  138.9154  166.1941 C.ar    1  UNL1        0.0031
     25 C         138.8658  137.9988  165.1481 C.ar    1  UNL1        0.0002
     26 C         140.3451  137.9574  164.9034 C.ar    1  UNL1        0.0031
     27 C         141.2626  138.8325  165.7047 C.ar    1  UNL1        0.0369
     28 C         135.3856  141.9317  155.0680 C.3     1  UNL1        0.0437
     29 C         134.9212  140.6897  155.7693 C.3     1  UNL1        0.0769
     30 C         129.1062  139.9704  157.0613 C.3     1  UNL1        0.0897
     31 N         130.5600  140.1502  156.7383 N.3     1  UNL1       -0.2691
     32 C         131.5946  139.3385  157.4599 C.3     1  UNL1        0.0897
     33 C         133.0483  139.5183  157.1369 C.3     1  UNL1        0.0897
     34 N         133.4674  140.5098  156.0923 N.3     1  UNL1       -0.2700
     35 C         132.4328  141.3216  155.3707 C.3     1  UNL1        0.0897
     36 C         130.9791  141.1418  155.6937 C.3     1  UNL1        0.0897
@<TRIPOS>BOND
     1    30    31    1
     2    31    32    1
     3    32    33    1
     4    33    34    1
     5    34    29    1
     6    29    28    1
     7    28     1    1
     8     1     2   ar
     9     2     3   ar
    10     3     4   ar
    11     4     5   ar
    12     5     6   ar
    13     5     7    1
    14     7     8    1
    15     8     9    2
    16     9    13    1
    17    13    14   ar
    18    14    15   ar
    19    15    16   ar
    20    16    18    1
    21    18    19    3
    22    19    20    1
    23    20    21    1
    24    21    22    1
    25    22    23   ar
    26    23    24   ar
    27    24    25   ar
    28    25    26   ar
    29    26    27   ar
    30    16    17   ar
    31     9    10    1
    32    10    11    2
    33    11    12    1
    34    34    35    1
    35    35    36    1
    36    36    31    1
    37     6     1   ar
    38    12     8    1
    39    12     4    1
    40    17    13   ar
    41    27    22   ar
@<TRIPOS>MOLECULE
*****
 36 41 0 0 0
SMALL
GASTEIGER

@<TRIPOS>ATOM
      1 C         142.6039  138.1522  156.0736 C.ar    1  UNL1       -0.0211
      2 C         143.7312  139.0392  155.6349 C.ar    1  UNL1       -0.0045
      3 C         144.1681  140.1815  156.5032 C.ar    1  UNL1       -0.0027
      4 C         143.4778  140.4370  157.8101 C.ar    1  UNL1        0.0019
      5 C         142.3505  139.5500  158.2488 C.ar    1  UNL1       -0.0201
      6 C         141.9136  138.4077  157.3806 C.ar    1  UNL1       -0.0084
      7 C         141.8631  140.0435  159.5788 C.3     1  UNL1        0.0519
      8 C         142.6892  141.2355  159.9621 C.2     1  UNL1        0.0074
      9 C         142.8984  142.2771  161.0210 C.2     1  UNL1        0.0976
     10 N         144.0257  143.1640  160.5823 N.2     1  UNL1       -0.1526
     11 N         144.5131  142.6706  159.2523 N.2     1  UNL1       -0.1678
     12 C         143.6871  141.4787  158.8690 C.3     1  UNL1        0.1672
     13 C         142.1175  142.4087  162.2949 C.ar    1  UNL1        0.0265
     14 C         141.6487  143.6925  162.9131 C.ar    1  UNL1        0.0376
     15 S         140.9097  143.3567  164.1746 S.2     1  UNL1       -0.0780
     16 C         140.9217  141.8655  164.3359 C.ar    1  UNL1        0.0711
     17 C         141.6682  141.2796  163.1743 C.ar    1  UNL1        0.0168
     18 C         140.2970  141.0954  165.4614 C.1     1  UNL1       -0.0543
     19 C         139.6723  140.3252  166.5868 C.1     1  UNL1       -0.0388
     20 C         139.0476  139.5551  167.7123 C.3     1  UNL1        0.2814
     21 O         139.4208  139.8656  169.1315 O.3     1  UNL1       -0.4612
     22 C         140.5260  140.8378  169.4209 C.ar    1  UNL1        0.1400
     23 C         140.2104  142.2869  169.6455 C.ar    1  UNL1        0.0369
     24 C         141.3154  143.2590  169.9348 C.ar    1  UNL1        0.0031
     25 C         142.7361  142.7820  169.9996 C.ar    1  UNL1        0.0002
     26 C         143.0516  141.3329  169.7750 C.ar    1  UNL1        0.0031
     27 C         141.9466  140.3608  169.4856 C.ar    1  UNL1        0.0369
     28 C         142.1668  137.0098  155.2053 C.3     1  UNL1        0.0437
     29 C         141.4343  135.8476  155.8074 C.3     1  UNL1        0.0769
     30 C         144.4657  130.9811  157.5761 C.3     1  UNL1        0.0897
     31 N         143.7079  132.1978  157.1340 N.3     1  UNL1       -0.2691
     32 C         142.5803  132.0639  156.1538 C.3     1  UNL1        0.0897
     33 C         141.8224  133.2804  155.7117 C.3     1  UNL1        0.0897
     34 N         142.1921  134.6309  156.2496 N.3     1  UNL1       -0.2700
     35 C         143.3197  134.7649  157.2297 C.3     1  UNL1        0.0897
     36 C         144.0776  133.5483  157.6719 C.3     1  UNL1        0.0897
@<TRIPOS>BOND
     1    30    31    1
     2    31    32    1
     3    32    33    1
     4    33    34    1
     5    34    29    1
     6    29    28    1
     7    28     1    1
     8     1     2   ar
     9     2     3   ar
    10     3     4   ar
    11     4     5   ar
    12     5     6   ar
    13     5     7    1
    14     7     8    1
    15     8     9    2
    16     9    13    1
    17    13    14   ar
    18    14    15   ar
    19    15    16   ar
    20    16    18    1
    21    18    19    3
    22    19    20    1
    23    20    21    1
    24    21    22    1
    25    22    23   ar
    26    23    24   ar
    27    24    25   ar
    28    25    26   ar
    29    26    27   ar
    30    16    17   ar
    31     9    10    1
    32    10    11    2
    33    11    12    1
    34    34    35    1
    35    35    36    1
    36    36    31    1
    37     6     1   ar
    38    12     8    1
    39    12     4    1
    40    17    13   ar
    41    27    22   ar
@<TRIPOS>MOLECULE
*****
 36 41 0 0 0
SMALL
GASTEIGER

@<TRIPOS>ATOM
      1 C         143.6463  138.9598  164.1044 C.ar    1  UNL1       -0.0211
      2 C         144.4141  140.1870  163.7116 C.ar    1  UNL1       -0.0045
      3 C         144.5183  140.5758  162.2666 C.ar    1  UNL1       -0.0027
      4 C         143.8547  139.7375  161.2146 C.ar    1  UNL1        0.0019
      5 C         143.0869  138.5103  161.6075 C.ar    1  UNL1       -0.0201
      6 C         142.9827  138.1215  163.0524 C.ar    1  UNL1       -0.0084
      7 C         142.5424  137.8844  160.3578 C.3     1  UNL1        0.0519
      8 C         142.9738  138.7247  159.1925 C.2     1  UNL1        0.0074
      9 C         142.9038  138.8571  157.7000 C.2     1  UNL1        0.0976
     10 N         143.6717  140.0843  157.3071 N.2     1  UNL1       -0.1526
     11 N         144.2161  140.7103  158.5568 N.2     1  UNL1       -0.1678
     12 C         143.7848  139.8700  159.7220 C.3     1  UNL1        0.1672
     13 C         142.1912  137.9259  156.7646 C.ar    1  UNL1        0.0265
     14 C         141.1312  138.3105  155.7754 C.ar    1  UNL1        0.0376
     15 S         140.6983  137.0688  155.0537 S.2     1  UNL1       -0.0780
     16 C         141.4908  135.9168  155.5968 C.ar    1  UNL1        0.0711
     17 C         142.4134  136.4465  156.6543 C.ar    1  UNL1        0.0168
     18 C         141.3801  134.4863  155.1594 C.1     1  UNL1       -0.0543
     19 C         141.2694  133.0558  154.7219 C.1     1  UNL1       -0.0388
     20 C         141.1586  131.6253  154.2844 C.3     1  UNL1        0.2814
     21 O         142.3489  130.7175  154.3799 O.3     1  UNL1       -0.4612
     22 C         143.2149  130.7426  155.6045 C.ar    1  UNL1        0.1400
     23 C         142.9385  129.7997  156.7379 C.ar    1  UNL1        0.0369
     24 C         143.8044  129.8247  157.9625 C.ar    1  UNL1        0.0031
     25 C         144.9467  130.7925  158.0536 C.ar    1  UNL1        0.0002
     26 C         145.2232  131.7354  156.9201 C.ar    1  UNL1        0.0031
     27 C         144.3573  131.7104  155.6956 C.ar    1  UNL1        0.0369
     28 C         143.5421  138.5708  165.5494 C.3     1  UNL1        0.0437
     29 C         142.3613  139.0130  166.3619 C.3     1  UNL1        0.0769
     30 C         143.0540  143.1407  170.6611 C.3     1  UNL1        0.0897
     31 N         142.8808  142.1087  169.5862 N.3     1  UNL1       -0.2691
     32 C         142.8972  142.5186  168.1434 C.3     1  UNL1        0.0897
     33 C         142.7241  141.4867  167.0686 C.3     1  UNL1        0.0897
     34 N         142.5345  140.0450  167.4367 N.3     1  UNL1       -0.2700
     35 C         142.5180  139.6352  168.8795 C.3     1  UNL1        0.0897
     36 C         142.6912  140.6670  169.9543 C.3     1  UNL1        0.0897
@<TRIPOS>BOND
     1    30    31    1
     2    31    32    1
     3    32    33    1
     4    33    34    1
     5    34    29    1
     6    29    28    1
     7    28     1    1
     8     1     2   ar
     9     2     3   ar
    10     3     4   ar
    11     4     5   ar
    12     5     6   ar
    13     5     7    1
    14     7     8    1
    15     8     9    2
    16     9    13    1
    17    13    14   ar
    18    14    15   ar
    19    15    16   ar
    20    16    18    1
    21    18    19    3
    22    19    20    1
    23    20    21    1
    24    21    22    1
    25    22    23   ar
    26    23    24   ar
    27    24    25   ar
    28    25    26   ar
    29    26    27   ar
    30    16    17   ar
    31     9    10    1
    32    10    11    2
    33    11    12    1
    34    34    35    1
    35    35    36    1
    36    36    31    1
    37     6     1   ar
    38    12     8    1
    39    12     4    1
    40    17    13   ar
    41    27    22   ar
@<TRIPOS>MOLECULE
*****
 36 41 0 0 0
SMALL
GASTEIGER

@<TRIPOS>ATOM
      1 C         143.2260  138.9483  156.4015 C.ar    1  UNL1       -0.0211
      2 C         143.6711  140.0626  155.5014 C.ar    1  UNL1       -0.0045
      3 C         143.5069  141.4888  155.9360 C.ar    1  UNL1       -0.0027
      4 C         142.8976  141.8007  157.2707 C.ar    1  UNL1        0.0019
      5 C         142.4525  140.6865  158.1708 C.ar    1  UNL1       -0.0201
      6 C         142.6167  139.2603  157.7362 C.ar    1  UNL1       -0.0084
      7 C         141.8903  141.2966  159.4205 C.3     1  UNL1        0.0519
      8 C         141.9879  142.7879  159.2927 C.2     1  UNL1        0.0074
      9 C         141.7007  144.0867  159.9861 C.2     1  UNL1        0.0976
     10 N         142.1458  145.2010  159.0860 N.2     1  UNL1       -0.1526
     11 N         142.7080  144.5909  157.8363 N.2     1  UNL1       -0.1678
     12 C         142.6104  143.0996  157.9641 C.3     1  UNL1        0.1672
     13 C         141.0779  144.2436  161.3416 C.ar    1  UNL1        0.0265
     14 C         140.0352  145.2529  161.7214 C.ar    1  UNL1        0.0376
     15 S         139.7012  145.0518  163.1698 S.2     1  UNL1       -0.0780
     16 C         140.5375  143.9182  163.6853 C.ar    1  UNL1        0.0711
     17 C         141.3882  143.4187  162.5554 C.ar    1  UNL1        0.0168
     18 C         140.5251  143.3788  165.0849 C.1     1  UNL1       -0.0543
     19 C         140.5127  142.8394  166.4845 C.1     1  UNL1       -0.0388
     20 C         140.5003  142.3000  167.8841 C.3     1  UNL1        0.2814
     21 O         140.6546  140.8270  168.1216 O.3     1  UNL1       -0.4612
     22 C         140.1025  139.8457  167.1304 C.ar    1  UNL1        0.1400
     23 C         140.9886  139.2831  166.0588 C.ar    1  UNL1        0.0369
     24 C         140.4366  138.3019  165.0677 C.ar    1  UNL1        0.0031
     25 C         138.9985  137.8832  165.1481 C.ar    1  UNL1        0.0002
     26 C         138.1124  138.4457  166.2197 C.ar    1  UNL1        0.0031
     27 C         138.6644  139.4270  167.2109 C.ar    1  UNL1        0.0369
     28 C         143.3902  137.5220  155.9669 C.3     1  UNL1        0.0437
     29 C         142.6034  136.4373  156.6409 C.3     1  UNL1        0.0769
     30 C         144.2680  130.7048  156.0347 C.3     1  UNL1        0.0897
     31 N         143.8519  132.1380  156.1863 N.3     1  UNL1       -0.2691
     32 C         144.0674  132.8477  157.4900 C.3     1  UNL1        0.0897
     33 C         143.6512  134.2808  157.6416 C.3     1  UNL1        0.0897
     34 N         143.0196  135.0042  156.4894 N.3     1  UNL1       -0.2700
     35 C         142.8041  134.2944  155.1856 C.3     1  UNL1        0.0897
     36 C         143.2202  132.8613  155.0340 C.3     1  UNL1        0.0897
@<TRIPOS>BOND
     1    30    31    1
     2    31    32    1
     3    32    33    1
     4    33    34    1
     5    34    29    1
     6    29    28    1
     7    28     1    1
     8     1     2   ar
     9     2     3   ar
    10     3     4   ar
    11     4     5   ar
    12     5     6   ar
    13     5     7    1
    14     7     8    1
    15     8     9    2
    16     9    13    1
    17    13    14   ar
    18    14    15   ar
    19    15    16   ar
    20    16    18    1
    21    18    19    3
    22    19    20    1
    23    20    21    1
    24    21    22    1
    25    22    23   ar
    26    23    24   ar
    27    24    25   ar
    28    25    26   ar
    29    26    27   ar
    30    16    17   ar
    31     9    10    1
    32    10    11    2
    33    11    12    1
    34    34    35    1
    35    35    36    1
    36    36    31    1
    37     6     1   ar
    38    12     8    1
    39    12     4    1
    40    17    13   ar
    41    27    22   ar
