@<TRIPOS>MOLECULE
*****
 40 44 0 0 0
SMALL
GASTEIGER

@<TRIPOS>ATOM
      1 C         140.7936  140.6734  165.0909 C.3     1  UNL1        0.2322
      2 N         141.0372  141.6698  166.1854 N.2     1  UNL1       -0.0614
      3 C         140.1789  141.2914  167.3559 C.2     1  UNL1        0.3157
      4 N         140.1072  142.0161  168.6673 N.pl3   1  UNL1       -0.2464
      5 C         139.4050  140.0613  166.9849 C.ar    1  UNL1        0.1094
      6 C         138.4034  139.2396  167.7410 C.ar    1  UNL1        0.1470
      7 F         138.0234  139.6216  169.1409 F       1  UNL1       -0.2039
      8 C         137.7817  138.0359  167.0971 C.ar    1  UNL1        0.0299
      9 C         138.1616  137.6539  165.6972 C.ar    1  UNL1        0.0021
     10 C         139.1632  138.4756  164.9412 C.ar    1  UNL1        0.0008
     11 C         139.7849  139.6792  165.5850 C.ar    1  UNL1        0.0390
     12 H         140.6570  142.8190  168.8168 H       1  UNL1        0.2884
     13 H         139.5103  141.6889  169.3785 H       1  UNL1        0.2884
     14 N         142.3401  143.4822  162.7522 N.ar    1  UNL1       -0.2946
     15 C         141.3385  142.6604  163.5082 C.ar    1  UNL1        0.0786
     16 C         141.7953  141.4951  164.3349 C.ar    1  UNL1        0.0468
     17 C         143.2537  141.1515  164.4055 C.ar    1  UNL1        0.0023
     18 C         144.2552  141.9732  163.6495 C.ar    1  UNL1        0.0342
     19 C         145.7137  141.6297  163.7201 C.3     1  UNL1        0.0360
     20 C         143.7984  143.1386  162.8229 C.ar    1  UNL1        0.2568
     21 O         144.8001  143.9603  162.0669 O.2     1  UNL1       -0.2673
     22 C         140.7520  145.5086  162.4038 C.3     1  UNL1        0.0266
     23 C         141.8833  144.6475  161.9256 C.3     1  UNL1        0.1091
     24 C         140.7595  139.8488  163.8384 C.ar    1  UNL1        0.0310
     25 C         141.6069  138.6159  163.7287 C.ar    1  UNL1        0.0005
     26 C         141.5728  137.7913  162.4761 C.ar    1  UNL1        0.0011
     27 C         140.6913  138.1995  161.3332 C.ar    1  UNL1        0.0147
     28 C         139.8439  139.4324  161.4429 C.ar    1  UNL1        0.0504
     29 C         139.8780  140.2570  162.6954 C.ar    1  UNL1        0.0151
     30 N         138.9623  139.8407  160.3000 N.am    1  UNL1       -0.2791
     31 C         139.3812  140.9588  159.3921 C.2     1  UNL1        0.2672
     32 O         140.6815  141.6687  159.6271 O.2     1  UNL1       -0.2682
     33 H         138.1089  139.3747  160.1457 H       1  UNL1        0.1552
     34 C         138.4997  141.3672  158.2491 C.ar    1  UNL1        0.1348
     35 C         138.7299  142.6769  157.5551 C.ar    1  UNL1        0.0246
     36 C         137.8484  143.0851  156.4122 C.ar    1  UNL1        0.0147
     37 C         136.7367  142.1836  155.9633 C.ar    1  UNL1        0.0768
     38 CL        135.8552  142.5919  154.8203 Cl      1  UNL1       -0.0806
     39 C         136.5065  140.8739  156.6572 C.ar    1  UNL1        0.1103
     40 N         137.3880  140.4657  157.8002 N.ar    1  UNL1       -0.2384
@<TRIPOS>BOND
     1    22    23    1
     2    23    14    1
     3    14    15   ar
     4    15    16   ar
     5     1    16    1
     6     1    24    1
     7    24    25   ar
     8    25    26   ar
     9    26    27   ar
    10    27    28   ar
    11    28    30    1
    12    30    31   am
    13    31    32    2
    14    31    34    1
    15    34    35   ar
    16    35    36   ar
    17    36    37   ar
    18    37    38    1
    19    37    39   ar
    20    39    40   ar
    21    28    29   ar
    22     1     2    1
    23     2     3    2
    24     3     4    1
    25     3     5    1
    26     5     6   ar
    27     6     7    1
    28     6     8   ar
    29     8     9   ar
    30     9    10   ar
    31    10    11   ar
    32    16    17   ar
    33    17    18   ar
    34    18    19    1
    35    18    20   ar
    36    20    21    2
    37    20    14   ar
    38    11     1    1
    39    29    24   ar
    40    11     5   ar
    41    40    34   ar
    42    30    33    1
    43     4    12    1
    44     4    13    1
@<TRIPOS>MOLECULE
*****
 40 44 0 0 0
SMALL
GASTEIGER

@<TRIPOS>ATOM
      1 C         141.5492  142.7290  164.6804 C.3     1  UNL1        0.2322
      2 N         140.3886  143.0868  165.5607 N.2     1  UNL1       -0.0614
      3 C         139.5575  144.1066  164.8402 C.2     1  UNL1        0.3157
      4 N         138.3002  144.7424  165.3549 N.pl3   1  UNL1       -0.2464
      5 C         140.2045  144.3792  163.5146 C.ar    1  UNL1        0.1094
      6 C         139.8318  145.2926  162.3847 C.ar    1  UNL1        0.1470
      7 F         138.6008  146.1441  162.4835 F       1  UNL1       -0.2039
      8 C         140.6900  145.3546  161.1561 C.ar    1  UNL1        0.0299
      9 C         141.9210  144.5032  161.0574 C.ar    1  UNL1        0.0021
     10 C         142.2937  143.5897  162.1872 C.ar    1  UNL1        0.0008
     11 C         141.4355  143.5277  163.4158 C.ar    1  UNL1        0.0390
     12 H         137.9522  144.4970  166.2425 H       1  UNL1        0.2884
     13 H         137.8229  145.4050  164.8050 H       1  UNL1        0.2884
     14 N         142.1390  141.3624  168.3594 N.ar    1  UNL1       -0.2946
     15 C         141.7663  142.2758  167.2294 C.ar    1  UNL1        0.0786
     16 C         141.9219  141.8155  165.8103 C.ar    1  UNL1        0.0468
     17 C         142.4502  140.4417  165.5212 C.ar    1  UNL1        0.0023
     18 C         142.8229  139.5283  166.6511 C.ar    1  UNL1        0.0342
     19 C         143.3512  138.1545  166.3619 C.3     1  UNL1        0.0360
     20 C         142.6673  139.9887  168.0702 C.ar    1  UNL1        0.2568
     21 O         143.0400  139.0752  169.2001 O.2     1  UNL1       -0.2673
     22 C         142.8014  142.9721  170.2881 C.3     1  UNL1        0.0266
     23 C         141.9834  141.8228  169.7785 C.3     1  UNL1        0.1091
     24 C         142.7878  142.1802  164.0363 C.ar    1  UNL1        0.0310
     25 C         144.1398  142.5841  164.5453 C.ar    1  UNL1        0.0005
     26 C         145.3783  142.0353  163.9012 C.ar    1  UNL1        0.0011
     27 C         145.2649  141.0826  162.7481 C.ar    1  UNL1        0.0147
     28 C         143.9129  140.6787  162.2391 C.ar    1  UNL1        0.0504
     29 C         142.6744  141.2275  162.8832 C.ar    1  UNL1        0.0151
     30 N         143.7995  139.7261  161.0861 N.am    1  UNL1       -0.2791
     31 C         143.5458  140.2491  159.7033 C.2     1  UNL1        0.2672
     32 O         143.4055  141.7248  159.4736 O.2     1  UNL1       -0.2682
     33 H         143.8916  138.7576  161.2368 H       1  UNL1        0.1552
     34 C         143.4323  139.2965  158.5502 C.ar    1  UNL1        0.1348
     35 C         142.7653  137.9663  158.7389 C.ar    1  UNL1        0.0246
     36 C         142.6519  137.0139  157.5857 C.ar    1  UNL1        0.0147
     37 C         143.2055  137.3916  156.2437 C.ar    1  UNL1        0.0768
     38 CL        143.0921  136.4392  155.0905 Cl      1  UNL1       -0.0806
     39 C         143.8725  138.7218  156.0549 C.ar    1  UNL1        0.1103
     40 N         143.9859  139.6743  157.2082 N.ar    1  UNL1       -0.2384
@<TRIPOS>BOND
     1    22    23    1
     2    23    14    1
     3    14    15   ar
     4    15    16   ar
     5     1    16    1
     6     1    24    1
     7    24    25   ar
     8    25    26   ar
     9    26    27   ar
    10    27    28   ar
    11    28    30    1
    12    30    31   am
    13    31    32    2
    14    31    34    1
    15    34    35   ar
    16    35    36   ar
    17    36    37   ar
    18    37    38    1
    19    37    39   ar
    20    39    40   ar
    21    28    29   ar
    22     1     2    1
    23     2     3    2
    24     3     4    1
    25     3     5    1
    26     5     6   ar
    27     6     7    1
    28     6     8   ar
    29     8     9   ar
    30     9    10   ar
    31    10    11   ar
    32    16    17   ar
    33    17    18   ar
    34    18    19    1
    35    18    20   ar
    36    20    21    2
    37    20    14   ar
    38    11     1    1
    39    29    24   ar
    40    11     5   ar
    41    40    34   ar
    42    30    33    1
    43     4    12    1
    44     4    13    1
@<TRIPOS>MOLECULE
*****
 40 44 0 0 0
SMALL
GASTEIGER

@<TRIPOS>ATOM
      1 C         140.7033  140.6790  165.5172 C.3     1  UNL1        0.2322
      2 N         141.1336  141.6606  166.5666 N.2     1  UNL1       -0.0614
      3 C         140.3332  141.3939  167.8068 C.2     1  UNL1        0.3157
      4 N         140.4392  142.1422  169.1025 N.pl3   1  UNL1       -0.2464
      5 C         139.4083  140.2474  167.5240 C.ar    1  UNL1        0.1094
      6 C         138.3873  139.5486  168.3722 C.ar    1  UNL1        0.1470
      7 F         138.1587  139.9905  169.7873 F       1  UNL1       -0.2039
      8 C         137.5951  138.4081  167.8053 C.ar    1  UNL1        0.0299
      9 C         137.8238  137.9662  166.3902 C.ar    1  UNL1        0.0021
     10 C         138.8447  138.6650  165.5420 C.ar    1  UNL1        0.0008
     11 C         139.6370  139.8055  166.1089 C.ar    1  UNL1        0.0390
     12 H         141.0801  142.8843  169.1914 H       1  UNL1        0.2884
     13 H         139.8679  141.8913  169.8640 H       1  UNL1        0.2884
     14 N         143.7107  141.2764  162.9977 N.ar    1  UNL1       -0.2946
     15 C         142.6898  140.5777  163.8458 C.ar    1  UNL1        0.0786
     16 C         141.7243  141.3777  164.6690 C.ar    1  UNL1        0.0468
     17 C         141.7797  142.8765  164.6441 C.ar    1  UNL1        0.0023
     18 C         142.8006  143.5752  163.7960 C.ar    1  UNL1        0.0342
     19 C         142.8561  145.0740  163.7710 C.3     1  UNL1        0.0360
     20 C         143.7662  142.7752  162.9727 C.ar    1  UNL1        0.2568
     21 O         144.7872  143.4739  162.1245 O.2     1  UNL1       -0.2673
     22 C         144.1745  139.3701  161.2945 C.3     1  UNL1        0.0266
     23 C         144.6763  140.4764  162.1744 C.3     1  UNL1        0.1091
     24 C         140.4864  139.8434  164.2905 C.ar    1  UNL1        0.0310
     25 C         141.0825  138.4696  164.2038 C.ar    1  UNL1        0.0005
     26 C         140.8655  137.6341  162.9770 C.ar    1  UNL1        0.0011
     27 C         140.0526  138.1723  161.8371 C.ar    1  UNL1        0.0147
     28 C         139.4565  139.5460  161.9238 C.ar    1  UNL1        0.0504
     29 C         139.6734  140.3816  163.1505 C.ar    1  UNL1        0.0151
     30 N         138.6436  140.0842  160.7839 N.am    1  UNL1       -0.2791
     31 C         139.3285  140.6829  159.5913 C.2     1  UNL1        0.2672
     32 O         140.8263  140.7434  159.5386 O.2     1  UNL1       -0.2682
     33 H         137.6605  140.0445  160.8185 H       1  UNL1        0.1552
     34 C         138.5156  141.2212  158.4513 C.ar    1  UNL1        0.1348
     35 C         138.7816  142.6008  157.9260 C.ar    1  UNL1        0.0246
     36 C         137.9687  143.1389  156.7860 C.ar    1  UNL1        0.0147
     37 C         136.8898  142.2974  156.1713 C.ar    1  UNL1        0.0768
     38 CL        136.0769  142.8355  155.0313 Cl      1  UNL1       -0.0806
     39 C         136.6238  140.9178  156.6966 C.ar    1  UNL1        0.1103
     40 N         137.4367  140.3797  157.8365 N.ar    1  UNL1       -0.2384
@<TRIPOS>BOND
     1    22    23    1
     2    23    14    1
     3    14    15   ar
     4    15    16   ar
     5     1    16    1
     6     1    24    1
     7    24    25   ar
     8    25    26   ar
     9    26    27   ar
    10    27    28   ar
    11    28    30    1
    12    30    31   am
    13    31    32    2
    14    31    34    1
    15    34    35   ar
    16    35    36   ar
    17    36    37   ar
    18    37    38    1
    19    37    39   ar
    20    39    40   ar
    21    28    29   ar
    22     1     2    1
    23     2     3    2
    24     3     4    1
    25     3     5    1
    26     5     6   ar
    27     6     7    1
    28     6     8   ar
    29     8     9   ar
    30     9    10   ar
    31    10    11   ar
    32    16    17   ar
    33    17    18   ar
    34    18    19    1
    35    18    20   ar
    36    20    21    2
    37    20    14   ar
    38    11     1    1
    39    29    24   ar
    40    11     5   ar
    41    40    34   ar
    42    30    33    1
    43     4    12    1
    44     4    13    1
@<TRIPOS>MOLECULE
*****
 40 44 0 0 0
SMALL
GASTEIGER

@<TRIPOS>ATOM
      1 C         141.5712  142.8131  163.9049 C.3     1  UNL1        0.2322
      2 N         140.5701  143.3188  164.9010 N.2     1  UNL1       -0.0614
      3 C         139.7990  144.4333  164.2581 C.2     1  UNL1        0.3157
      4 N         138.6969  145.2257  164.8964 N.pl3   1  UNL1       -0.2464
      5 C         140.3235  144.6164  162.8647 C.ar    1  UNL1        0.1094
      6 C         139.9452  145.5655  161.7665 C.ar    1  UNL1        0.1470
      7 F         138.8499  146.5668  161.9848 F       1  UNL1       -0.2039
      8 C         140.6622  145.5132  160.4501 C.ar    1  UNL1        0.0299
      9 C         141.7575  144.5118  160.2318 C.ar    1  UNL1        0.0021
     10 C         142.1358  143.5627  161.3300 C.ar    1  UNL1        0.0008
     11 C         141.4188  143.6150  162.6464 C.ar    1  UNL1        0.0390
     12 H         138.4219  145.0299  165.8212 H       1  UNL1        0.2884
     13 H         138.2486  145.9415  164.3906 H       1  UNL1        0.2884
     14 N         142.3276  139.4364  165.8481 N.ar    1  UNL1       -0.2946
     15 C         141.9494  140.3855  164.7499 C.ar    1  UNL1        0.0786
     16 C         141.9494  141.8640  165.0032 C.ar    1  UNL1        0.0468
     17 C         142.3277  142.3933  166.3547 C.ar    1  UNL1        0.0023
     18 C         142.7059  141.4442  167.4529 C.ar    1  UNL1        0.0342
     19 C         143.0842  141.9735  168.8045 C.3     1  UNL1        0.0360
     20 C         142.7059  139.9657  167.1996 C.ar    1  UNL1        0.2568
     21 O         143.0841  139.0166  168.2979 O.2     1  UNL1       -0.2673
     22 C         141.3112  137.3554  164.6706 C.3     1  UNL1        0.0266
     23 C         142.3275  137.9579  165.5947 C.3     1  UNL1        0.1091
     24 C         142.6513  142.1089  163.1385 C.ar    1  UNL1        0.0310
     25 C         144.0879  142.4852  163.3496 C.ar    1  UNL1        0.0005
     26 C         145.1681  141.7810  162.5831 C.ar    1  UNL1        0.0011
     27 C         144.8116  140.7005  161.6056 C.ar    1  UNL1        0.0147
     28 C         143.3750  140.3242  161.3945 C.ar    1  UNL1        0.0504
     29 C         142.2948  141.0284  162.1609 C.ar    1  UNL1        0.0151
     30 N         143.0185  139.2438  160.4170 N.am    1  UNL1       -0.2791
     31 C         142.3728  139.5979  159.1103 C.2     1  UNL1        0.2672
     32 O         142.0836  141.0325  158.7810 O.2     1  UNL1       -0.2682
     33 H         143.2083  138.3022  160.6331 H       1  UNL1        0.1552
     34 C         142.0162  138.5175  158.1327 C.ar    1  UNL1        0.1348
     35 C         140.6748  138.5261  157.4615 C.ar    1  UNL1        0.0246
     36 C         140.3184  137.4457  156.4839 C.ar    1  UNL1        0.0147
     37 C         141.3034  136.3567  156.1776 C.ar    1  UNL1        0.0768
     38 CL        140.9469  135.2762  155.2000 Cl      1  UNL1       -0.0806
     39 C         142.6448  136.3480  156.8488 C.ar    1  UNL1        0.1103
     40 N         143.0012  137.4285  157.8263 N.ar    1  UNL1       -0.2384
@<TRIPOS>BOND
     1    22    23    1
     2    23    14    1
     3    14    15   ar
     4    15    16   ar
     5     1    16    1
     6     1    24    1
     7    24    25   ar
     8    25    26   ar
     9    26    27   ar
    10    27    28   ar
    11    28    30    1
    12    30    31   am
    13    31    32    2
    14    31    34    1
    15    34    35   ar
    16    35    36   ar
    17    36    37   ar
    18    37    38    1
    19    37    39   ar
    20    39    40   ar
    21    28    29   ar
    22     1     2    1
    23     2     3    2
    24     3     4    1
    25     3     5    1
    26     5     6   ar
    27     6     7    1
    28     6     8   ar
    29     8     9   ar
    30     9    10   ar
    31    10    11   ar
    32    16    17   ar
    33    17    18   ar
    34    18    19    1
    35    18    20   ar
    36    20    21    2
    37    20    14   ar
    38    11     1    1
    39    29    24   ar
    40    11     5   ar
    41    40    34   ar
    42    30    33    1
    43     4    12    1
    44     4    13    1
@<TRIPOS>MOLECULE
*****
 40 44 0 0 0
SMALL
GASTEIGER

@<TRIPOS>ATOM
      1 C         141.2693  142.6145  161.9657 C.3     1  UNL1        0.2322
      2 N         140.2658  143.6264  162.4335 N.2     1  UNL1       -0.0614
      3 C         140.1548  144.6897  161.3813 C.2     1  UNL1        0.3157
      4 N         139.2650  145.8960  161.4373 N.pl3   1  UNL1       -0.2464
      5 C         141.0896  144.3349  160.2632 C.ar    1  UNL1        0.1094
      6 C         141.4026  145.0139  158.9629 C.ar    1  UNL1        0.1470
      7 F         140.7138  146.2965  158.6017 F       1  UNL1       -0.2039
      8 C         142.4045  144.4104  158.0238 C.ar    1  UNL1        0.0299
      9 C         143.0934  143.1279  158.3850 C.ar    1  UNL1        0.0021
     10 C         142.7803  142.4488  159.6853 C.ar    1  UNL1        0.0008
     11 C         141.7785  143.0523  160.6244 C.ar    1  UNL1        0.0390
     12 H         138.6836  146.0431  162.2181 H       1  UNL1        0.2884
     13 H         139.2625  146.5408  160.6933 H       1  UNL1        0.2884
     14 N         139.6247  140.1560  164.6117 N.ar    1  UNL1       -0.2946
     15 C         139.9378  140.8350  163.3114 C.ar    1  UNL1        0.0786
     16 C         140.9563  141.9354  163.2661 C.ar    1  UNL1        0.0468
     17 C         141.6616  142.3566  164.5210 C.ar    1  UNL1        0.0023
     18 C         141.3485  141.6776  165.8213 C.ar    1  UNL1        0.0342
     19 C         142.0539  142.0988  167.0764 C.3     1  UNL1        0.0360
     20 C         140.3301  140.5772  165.8666 C.ar    1  UNL1        0.2568
     21 O         140.0170  139.8981  167.1670 O.2     1  UNL1       -0.2673
     22 C         139.0508  137.6239  164.7071 C.3     1  UNL1        0.0266
     23 C         138.6063  139.0556  164.6570 C.3     1  UNL1        0.1091
     24 C         142.2074  141.4605  161.7697 C.ar    1  UNL1        0.0310
     25 C         143.5237  141.4336  162.4886 C.ar    1  UNL1        0.0005
     26 C         144.4618  140.2795  162.2926 C.ar    1  UNL1        0.0011
     27 C         144.0836  139.1526  161.3778 C.ar    1  UNL1        0.0147
     28 C         142.7673  139.1795  160.6590 C.ar    1  UNL1        0.0504
     29 C         141.8292  140.3335  160.8549 C.ar    1  UNL1        0.0151
     30 N         142.3891  138.0525  159.7441 N.am    1  UNL1       -0.2791
     31 C         142.8190  138.0764  158.3073 C.2     1  UNL1        0.2672
     32 O         143.6271  139.2273  157.7852 O.2     1  UNL1       -0.2682
     33 H         141.8587  137.2972  160.0868 H       1  UNL1        0.1552
     34 C         142.4408  136.9495  157.3924 C.ar    1  UNL1        0.1348
     35 C         141.3031  137.1150  156.4290 C.ar    1  UNL1        0.0246
     36 C         140.9250  135.9880  155.5142 C.ar    1  UNL1        0.0147
     37 C         141.6848  134.6955  155.5627 C.ar    1  UNL1        0.0768
     38 CL        141.3067  133.5685  154.6478 Cl      1  UNL1       -0.0806
     39 C         142.8225  134.5300  156.5260 C.ar    1  UNL1        0.1103
     40 N         143.2006  135.6570  157.4409 N.ar    1  UNL1       -0.2384
@<TRIPOS>BOND
     1    22    23    1
     2    23    14    1
     3    14    15   ar
     4    15    16   ar
     5     1    16    1
     6     1    24    1
     7    24    25   ar
     8    25    26   ar
     9    26    27   ar
    10    27    28   ar
    11    28    30    1
    12    30    31   am
    13    31    32    2
    14    31    34    1
    15    34    35   ar
    16    35    36   ar
    17    36    37   ar
    18    37    38    1
    19    37    39   ar
    20    39    40   ar
    21    28    29   ar
    22     1     2    1
    23     2     3    2
    24     3     4    1
    25     3     5    1
    26     5     6   ar
    27     6     7    1
    28     6     8   ar
    29     8     9   ar
    30     9    10   ar
    31    10    11   ar
    32    16    17   ar
    33    17    18   ar
    34    18    19    1
    35    18    20   ar
    36    20    21    2
    37    20    14   ar
    38    11     1    1
    39    29    24   ar
    40    11     5   ar
    41    40    34   ar
    42    30    33    1
    43     4    12    1
    44     4    13    1
@<TRIPOS>MOLECULE
*****
 40 44 0 0 0
SMALL
GASTEIGER

@<TRIPOS>ATOM
      1 C         141.6702  140.8699  166.1484 C.3     1  UNL1        0.2322
      2 N         142.7015  141.7472  166.7940 N.2     1  UNL1       -0.0614
      3 C         142.2919  141.9721  168.2193 C.2     1  UNL1        0.3157
      4 N         143.0361  142.7915  169.2317 N.pl3   1  UNL1       -0.2464
      5 C         141.0076  141.2338  168.4547 C.ar    1  UNL1        0.1094
      6 C         140.1383  141.0939  169.6690 C.ar    1  UNL1        0.1470
      7 F         140.5226  141.7751  170.9490 F       1  UNL1       -0.2039
      8 C         138.8848  140.2727  169.6035 C.ar    1  UNL1        0.0299
      9 C         138.5006  139.5915  168.3235 C.ar    1  UNL1        0.0021
     10 C         139.3698  139.7314  167.1091 C.ar    1  UNL1        0.0008
     11 C         140.6233  140.5526  167.1747 C.ar    1  UNL1        0.0390
     12 H         143.8754  143.2407  168.9805 H       1  UNL1        0.2884
     13 H         142.6853  142.8800  170.1473 H       1  UNL1        0.2884
     14 N         143.8585  142.5091  163.2718 N.ar    1  UNL1       -0.2946
     15 C         142.9893  142.3690  164.4862 C.ar    1  UNL1        0.0786
     16 C         142.5395  141.0099  164.9339 C.ar    1  UNL1        0.0468
     17 C         142.9590  139.7908  164.1673 C.ar    1  UNL1        0.0023
     18 C         143.8283  139.9308  162.9529 C.ar    1  UNL1        0.0342
     19 C         144.2478  138.7117  162.1862 C.3     1  UNL1        0.0360
     20 C         144.2780  141.2900  162.5052 C.ar    1  UNL1        0.2568
     21 O         145.1473  141.4300  161.2908 O.2     1  UNL1       -0.2673
     22 C         143.6706  145.0971  163.4012 C.3     1  UNL1        0.0266
     23 C         144.3083  143.8682  162.8241 C.3     1  UNL1        0.1091
     24 C         140.8206  140.0219  165.2489 C.ar    1  UNL1        0.0310
     25 C         140.6280  138.5657  165.5530 C.ar    1  UNL1        0.0005
     26 C         139.7784  137.7177  164.6534 C.ar    1  UNL1        0.0011
     27 C         139.1215  138.3258  163.4498 C.ar    1  UNL1        0.0147
     28 C         139.3142  139.7820  163.1457 C.ar    1  UNL1        0.0504
     29 C         140.1637  140.6300  164.0452 C.ar    1  UNL1        0.0151
     30 N         138.6573  140.3901  161.9421 N.am    1  UNL1       -0.2791
     31 C         139.3996  140.4665  160.6409 C.2     1  UNL1        0.2672
     32 O         140.7988  139.9347  160.5433 O.2     1  UNL1       -0.2682
     33 H         137.7390  140.7392  162.0061 H       1  UNL1        0.1552
     34 C         138.7429  141.0746  159.4372 C.ar    1  UNL1        0.1348
     35 C         139.1331  142.4504  158.9847 C.ar    1  UNL1        0.0246
     36 C         138.4763  143.0585  157.7810 C.ar    1  UNL1        0.0147
     37 C         137.4292  142.2906  157.0298 C.ar    1  UNL1        0.0768
     38 CL        136.7724  142.8987  155.8261 Cl      1  UNL1       -0.0806
     39 C         137.0390  140.9148  157.4824 C.ar    1  UNL1        0.1103
     40 N         137.6958  140.3068  158.6861 N.ar    1  UNL1       -0.2384
@<TRIPOS>BOND
     1    22    23    1
     2    23    14    1
     3    14    15   ar
     4    15    16   ar
     5     1    16    1
     6     1    24    1
     7    24    25   ar
     8    25    26   ar
     9    26    27   ar
    10    27    28   ar
    11    28    30    1
    12    30    31   am
    13    31    32    2
    14    31    34    1
    15    34    35   ar
    16    35    36   ar
    17    36    37   ar
    18    37    38    1
    19    37    39   ar
    20    39    40   ar
    21    28    29   ar
    22     1     2    1
    23     2     3    2
    24     3     4    1
    25     3     5    1
    26     5     6   ar
    27     6     7    1
    28     6     8   ar
    29     8     9   ar
    30     9    10   ar
    31    10    11   ar
    32    16    17   ar
    33    17    18   ar
    34    18    19    1
    35    18    20   ar
    36    20    21    2
    37    20    14   ar
    38    11     1    1
    39    29    24   ar
    40    11     5   ar
    41    40    34   ar
    42    30    33    1
    43     4    12    1
    44     4    13    1
@<TRIPOS>MOLECULE
*****
 40 44 0 0 0
SMALL
GASTEIGER

@<TRIPOS>ATOM
      1 C         139.2105  142.3931  160.4684 C.3     1  UNL1        0.2322
      2 N         138.0831  141.5841  161.0379 N.2     1  UNL1       -0.0614
      3 C         137.9082  141.9797  162.4742 C.2     1  UNL1        0.3157
      4 N         136.8923  141.4200  163.4254 N.pl3   1  UNL1       -0.2464
      5 C         138.9275  143.0332  162.7923 C.ar    1  UNL1        0.1094
      6 C         139.2267  143.7928  164.0506 C.ar    1  UNL1        0.1470
      7 F         138.4217  143.5373  165.2903 F       1  UNL1       -0.2039
      8 C         140.3308  144.8079  164.0692 C.ar    1  UNL1        0.0299
      9 C         141.1357  145.0634  162.8296 C.ar    1  UNL1        0.0021
     10 C         140.8365  144.3038  161.5712 C.ar    1  UNL1        0.0008
     11 C         139.7324  143.2887  161.5526 C.ar    1  UNL1        0.0390
     12 H         136.2623  140.7273  163.1212 H       1  UNL1        0.2884
     13 H         136.8555  141.7454  164.3538 H       1  UNL1        0.2884
     14 N         139.1995  139.5097  157.7415 N.ar    1  UNL1       -0.2946
     15 C         139.4987  140.2694  158.9998 C.ar    1  UNL1        0.0786
     16 C         138.9112  141.6334  159.2100 C.ar    1  UNL1        0.0468
     17 C         138.0246  142.2378  158.1619 C.ar    1  UNL1        0.0023
     18 C         137.7254  141.4782  156.9036 C.ar    1  UNL1        0.0342
     19 C         136.8386  142.0825  155.8555 C.3     1  UNL1        0.0360
     20 C         138.3128  140.1141  156.6934 C.ar    1  UNL1        0.2568
     21 O         138.0136  139.3544  155.4350 O.2     1  UNL1       -0.2673
     22 C         141.2755  137.9609  157.5382 C.3     1  UNL1        0.0266
     23 C         139.7870  138.1456  157.5312 C.3     1  UNL1        0.1091
     24 C         140.2754  143.0433  159.6357 C.ar    1  UNL1        0.0310
     25 C         141.6018  142.3672  159.4530 C.ar    1  UNL1        0.0005
     26 C         142.6667  143.0174  158.6203 C.ar    1  UNL1        0.0011
     27 C         142.4051  144.3438  157.9704 C.ar    1  UNL1        0.0147
     28 C         141.0786  145.0199  158.1531 C.ar    1  UNL1        0.0504
     29 C         140.0138  144.3697  158.9858 C.ar    1  UNL1        0.0151
     30 N         140.8170  146.3462  157.5032 N.am    1  UNL1       -0.2791
     31 C         139.8492  146.4440  156.3614 C.2     1  UNL1        0.2672
     32 O         139.1430  145.2154  155.8696 O.2     1  UNL1       -0.2682
     33 H         141.2806  147.1526  157.8261 H       1  UNL1        0.1552
     34 C         139.5875  147.7703  155.7114 C.ar    1  UNL1        0.1348
     35 C         140.1481  148.0626  154.3512 C.ar    1  UNL1        0.0246
     36 C         139.8864  149.3889  153.7013 C.ar    1  UNL1        0.0147
     37 C         139.0640  150.4229  154.4116 C.ar    1  UNL1        0.0768
     38 CL        138.8022  151.7492  153.7617 Cl      1  UNL1       -0.0806
     39 C         138.5033  150.1306  155.7719 C.ar    1  UNL1        0.1103
     40 N         138.7651  148.8043  156.4217 N.ar    1  UNL1       -0.2384
@<TRIPOS>BOND
     1    22    23    1
     2    23    14    1
     3    14    15   ar
     4    15    16   ar
     5     1    16    1
     6     1    24    1
     7    24    25   ar
     8    25    26   ar
     9    26    27   ar
    10    27    28   ar
    11    28    30    1
    12    30    31   am
    13    31    32    2
    14    31    34    1
    15    34    35   ar
    16    35    36   ar
    17    36    37   ar
    18    37    38    1
    19    37    39   ar
    20    39    40   ar
    21    28    29   ar
    22     1     2    1
    23     2     3    2
    24     3     4    1
    25     3     5    1
    26     5     6   ar
    27     6     7    1
    28     6     8   ar
    29     8     9   ar
    30     9    10   ar
    31    10    11   ar
    32    16    17   ar
    33    17    18   ar
    34    18    19    1
    35    18    20   ar
    36    20    21    2
    37    20    14   ar
    38    11     1    1
    39    29    24   ar
    40    11     5   ar
    41    40    34   ar
    42    30    33    1
    43     4    12    1
    44     4    13    1
@<TRIPOS>MOLECULE
*****
 40 44 0 0 0
SMALL
GASTEIGER

@<TRIPOS>ATOM
      1 C         140.8201  140.5937  167.0373 C.3     1  UNL1        0.2322
      2 N         139.5405  140.2306  167.7307 N.2     1  UNL1       -0.0614
      3 C         139.6167  140.7387  169.1400 C.2     1  UNL1        0.3157
      4 N         138.5530  140.5950  170.1878 N.pl3   1  UNL1       -0.2464
      5 C         140.9434  141.4158  169.3175 C.ar    1  UNL1        0.1094
      6 C         141.5703  142.1023  170.4946 C.ar    1  UNL1        0.1470
      7 F         140.8266  142.1920  171.7942 F       1  UNL1       -0.2039
      8 C         142.9409  142.6993  170.3721 C.ar    1  UNL1        0.0299
      9 C         143.6846  142.6096  169.0726 C.ar    1  UNL1        0.0021
     10 C         143.0577  141.9231  167.8955 C.ar    1  UNL1        0.0008
     11 C         141.6871  141.3262  168.0180 C.ar    1  UNL1        0.0390
     12 H         137.7111  140.1315  169.9742 H       1  UNL1        0.2884
     13 H         138.6968  140.9642  171.0891 H       1  UNL1        0.2884
     14 N         138.4639  139.8948  163.9211 N.ar    1  UNL1       -0.2946
     15 C         139.0909  140.5813  165.0982 C.ar    1  UNL1        0.0786
     16 C         140.1931  139.9071  165.8602 C.ar    1  UNL1        0.0468
     17 C         140.6683  138.5463  165.4450 C.ar    1  UNL1        0.0023
     18 C         140.0413  137.8598  164.2680 C.ar    1  UNL1        0.0342
     19 C         140.5165  136.4989  163.8528 C.3     1  UNL1        0.0360
     20 C         138.9392  138.5340  163.5060 C.ar    1  UNL1        0.2568
     21 O         138.3122  137.8474  162.3289 O.2     1  UNL1       -0.2673
     22 C         137.3456  142.0632  163.0283 C.3     1  UNL1        0.0266
     23 C         137.3618  140.5691  163.1592 C.3     1  UNL1        0.1091
     24 C         141.9686  140.8132  166.0978 C.ar    1  UNL1        0.0310
     25 C         143.2627  140.0858  166.3124 C.ar    1  UNL1        0.0005
     26 C         144.4113  140.3053  165.3728 C.ar    1  UNL1        0.0011
     27 C         144.2656  141.2523  164.2186 C.ar    1  UNL1        0.0147
     28 C         142.9715  141.9797  164.0040 C.ar    1  UNL1        0.0504
     29 C         141.8230  141.7602  164.9435 C.ar    1  UNL1        0.0151
     30 N         142.8258  142.9267  162.8499 N.am    1  UNL1       -0.2791
     31 C         142.1687  142.4681  161.5819 C.2     1  UNL1        0.2672
     32 O         141.6572  141.0626  161.4680 O.2     1  UNL1       -0.2682
     33 H         143.1615  143.8491  162.9246 H       1  UNL1        0.1552
     34 C         142.0230  143.4149  160.4276 C.ar    1  UNL1        0.1348
     35 C         142.8615  143.2326  159.1974 C.ar    1  UNL1        0.0246
     36 C         142.7157  144.1795  158.0432 C.ar    1  UNL1        0.0147
     37 C         141.7313  145.3088  158.1193 C.ar    1  UNL1        0.0768
     38 CL        141.5855  146.2557  156.9652 Cl      1  UNL1       -0.0806
     39 C         140.8928  145.4912  159.3496 C.ar    1  UNL1        0.1103
     40 N         141.0386  144.5442  160.5037 N.ar    1  UNL1       -0.2384
@<TRIPOS>BOND
     1    22    23    1
     2    23    14    1
     3    14    15   ar
     4    15    16   ar
     5     1    16    1
     6     1    24    1
     7    24    25   ar
     8    25    26   ar
     9    26    27   ar
    10    27    28   ar
    11    28    30    1
    12    30    31   am
    13    31    32    2
    14    31    34    1
    15    34    35   ar
    16    35    36   ar
    17    36    37   ar
    18    37    38    1
    19    37    39   ar
    20    39    40   ar
    21    28    29   ar
    22     1     2    1
    23     2     3    2
    24     3     4    1
    25     3     5    1
    26     5     6   ar
    27     6     7    1
    28     6     8   ar
    29     8     9   ar
    30     9    10   ar
    31    10    11   ar
    32    16    17   ar
    33    17    18   ar
    34    18    19    1
    35    18    20   ar
    36    20    21    2
    37    20    14   ar
    38    11     1    1
    39    29    24   ar
    40    11     5   ar
    41    40    34   ar
    42    30    33    1
    43     4    12    1
    44     4    13    1
@<TRIPOS>MOLECULE
*****
 40 44 0 0 0
SMALL
GASTEIGER

@<TRIPOS>ATOM
      1 C         140.7178  141.7859  166.6081 C.3     1  UNL1        0.2322
      2 N         140.1681  143.0214  167.2571 N.2     1  UNL1       -0.0614
      3 C         140.5786  143.0091  168.6997 C.2     1  UNL1        0.3157
      4 N         140.2444  144.0561  169.7206 N.pl3   1  UNL1       -0.2464
      5 C         141.3821  141.7658  168.9424 C.ar    1  UNL1        0.1094
      6 C         142.0466  141.2245  170.1734 C.ar    1  UNL1        0.1470
      7 F         141.9606  141.9805  171.4661 F       1  UNL1       -0.2039
      8 C         142.7970  139.9272  170.1117 C.ar    1  UNL1        0.0299
      9 C         142.8830  139.1713  168.8190 C.ar    1  UNL1        0.0021
     10 C         142.2186  139.7126  167.5880 C.ar    1  UNL1        0.0008
     11 C         141.4681  141.0099  167.6497 C.ar    1  UNL1        0.0390
     12 H         139.7083  144.8407  169.4636 H       1  UNL1        0.2884
     13 H         140.5613  143.9586  170.6476 H       1  UNL1        0.2884
     14 N         138.3110  142.0774  163.4661 N.ar    1  UNL1       -0.2946
     15 C         138.9755  141.5361  164.6971 C.ar    1  UNL1        0.0786
     16 C         140.0533  142.3273  165.3771 C.ar    1  UNL1        0.0468
     17 C         140.4667  143.6597  164.8260 C.ar    1  UNL1        0.0023
     18 C         139.8022  144.2010  163.5950 C.ar    1  UNL1        0.0342
     19 C         140.2155  145.5336  163.0440 C.3     1  UNL1        0.0360
     20 C         138.7244  143.4099  162.9151 C.ar    1  UNL1        0.2568
     21 O         138.0599  143.9513  161.6840 O.2     1  UNL1       -0.2673
     22 C         137.5913  140.2888  161.7246 C.3     1  UNL1        0.0266
     23 C         137.2332  141.2863  162.7861 C.3     1  UNL1        0.1091
     24 C         141.1286  140.6635  165.7018 C.ar    1  UNL1        0.0310
     25 C         140.6966  139.2592  166.0038 C.ar    1  UNL1        0.0005
     26 C         141.1075  138.1367  165.0974 C.ar    1  UNL1        0.0011
     27 C         141.9503  138.4187  163.8890 C.ar    1  UNL1        0.0147
     28 C         142.3823  139.8231  163.5870 C.ar    1  UNL1        0.0504
     29 C         141.9715  140.9454  164.4934 C.ar    1  UNL1        0.0151
     30 N         143.2251  140.1050  162.3787 N.am    1  UNL1       -0.2791
     31 C         142.6247  140.7953  161.1900 C.2     1  UNL1        0.2672
     32 O         141.1814  141.2035  161.2096 O.2     1  UNL1       -0.2682
     33 H         144.1724  139.8371  162.3658 H       1  UNL1        0.1552
     34 C         143.4674  141.0773  159.9815 C.ar    1  UNL1        0.1348
     35 C         144.2345  142.3627  159.8854 C.ar    1  UNL1        0.0246
     36 C         145.0772  142.6446  158.6769 C.ar    1  UNL1        0.0147
     37 C         145.1528  141.6411  157.5646 C.ar    1  UNL1        0.0768
     38 CL        145.9954  141.9230  156.3561 Cl      1  UNL1       -0.0806
     39 C         144.3857  140.3557  157.6607 C.ar    1  UNL1        0.1103
     40 N         143.5430  140.0738  158.8692 N.ar    1  UNL1       -0.2384
@<TRIPOS>BOND
     1    22    23    1
     2    23    14    1
     3    14    15   ar
     4    15    16   ar
     5     1    16    1
     6     1    24    1
     7    24    25   ar
     8    25    26   ar
     9    26    27   ar
    10    27    28   ar
    11    28    30    1
    12    30    31   am
    13    31    32    2
    14    31    34    1
    15    34    35   ar
    16    35    36   ar
    17    36    37   ar
    18    37    38    1
    19    37    39   ar
    20    39    40   ar
    21    28    29   ar
    22     1     2    1
    23     2     3    2
    24     3     4    1
    25     3     5    1
    26     5     6   ar
    27     6     7    1
    28     6     8   ar
    29     8     9   ar
    30     9    10   ar
    31    10    11   ar
    32    16    17   ar
    33    17    18   ar
    34    18    19    1
    35    18    20   ar
    36    20    21    2
    37    20    14   ar
    38    11     1    1
    39    29    24   ar
    40    11     5   ar
    41    40    34   ar
    42    30    33    1
    43     4    12    1
    44     4    13    1
