@<TRIPOS>MOLECULE
*****
 31 35 0 0 0
SMALL
GASTEIGER

@<TRIPOS>ATOM
      1 C         137.8948  138.8382  166.9975 C.3     1  UNL1        0.0247
      2 C         138.9464  139.4703  166.1346 C.3     1  UNL1        0.0923
      3 C         138.7995  139.2448  164.6589 C.3     1  UNL1        0.0699
      4 C         139.6758  139.7376  163.5458 C.3     1  UNL1        0.2075
      5 O         140.9154  140.5778  163.6332 O.3     1  UNL1       -0.4726
      6 C         141.5848  141.1325  164.8555 C.ar    1  UNL1        0.1696
      7 C         142.8083  141.9236  164.4988 C.ar    1  UNL1        0.1115
      8 C         143.6271  142.5665  165.5789 C.ar    1  UNL1        0.1564
      9 F         144.8505  143.3576  165.2223 F       1  UNL1       -0.2028
     10 C         143.2222  142.4181  167.0156 C.ar    1  UNL1        0.0326
     11 C         141.9988  141.6270  167.3723 C.ar    1  UNL1        0.0214
     12 C         141.7792  141.6075  168.8608 C.ar    1  UNL1        0.0075
     13 C         140.5770  140.8399  169.3250 C.ar    1  UNL1        0.0702
     14 C         139.6903  140.1584  168.3254 C.ar    1  UNL1        0.2619
     15 O         138.4881  139.3908  168.7897 O.2     1  UNL1       -0.2669
     16 N         140.0059  140.2445  166.8615 N.ar    1  UNL1       -0.2945
     17 C         141.1800  140.9842  166.2922 C.ar    1  UNL1        0.0979
     18 N         143.2130  142.0720  163.0622 N.pl3   1  UNL1       -0.3033
     19 C         144.3603  141.3750  162.3929 C.3     1  UNL1        0.0910
     20 C         144.3979  141.8156  160.9596 C.3     1  UNL1        0.0244
     21 C         143.2739  142.7849  160.7429 C.3     1  UNL1        0.0344
     22 C         142.5416  142.9433  162.0424 C.3     1  UNL1        0.0922
     23 C         142.9407  143.4746  159.4533 C.3     1  UNL1        0.0406
     24 N         142.1088  144.6098  159.9724 N.3     1  UNL1       -0.3231
     25 C         142.8964  143.7702  157.9834 C.3     1  UNL1        0.0156
     26 C         143.6568  142.5791  158.4863 C.3     1  UNL1        0.0156
     27 H         142.0432  144.5464  160.9883 H       1  UNL1        0.1188
     28 H         141.1740  144.5592  159.5674 H       1  UNL1        0.1188
     29 C         140.2615  140.7539  170.7890 C.2     1  UNL1        0.0775
     30 O         140.5588  141.9159  171.6898 O.co2   1  UNL1       -0.5444
     31 O         139.6488  139.5059  171.3521 O.co2   1  UNL1       -0.5444
@<TRIPOS>UNITY_ATOM_ATTR
30 1
charge -1
@<TRIPOS>BOND
     1     2     1    1
     2     2     3    1
     3     3     4    1
     4     4     5    1
     5     5     6    1
     6     6     7   ar
     7     7    18    1
     8    18    19    1
     9    19    20    1
    10    20    21    1
    11    21    23    1
    12    23    24    1
    13    23    25    1
    14    25    26    1
    15    21    22    1
    16     7     8   ar
    17     8     9    1
    18     8    10   ar
    19    10    11   ar
    20    11    12   ar
    21    12    13   ar
    22    13    29    1
    23    29    30   ar
    24    29    31   ar
    25    13    14   ar
    26    14    15    2
    27    14    16   ar
    28    16    17   ar
    29    16     2    1
    30    17     6   ar
    31    22    18    1
    32    17    11   ar
    33    26    23    1
    34    24    27    1
    35    24    28    1
@<TRIPOS>MOLECULE
*****
 31 35 0 0 0
SMALL
GASTEIGER

@<TRIPOS>ATOM
      1 C         137.8414  138.7665  167.5603 C.3     1  UNL1        0.0247
      2 C         138.9221  139.0942  166.5731 C.3     1  UNL1        0.0923
      3 C         138.8120  138.4177  165.2388 C.3     1  UNL1        0.0699
      4 C         139.7225  138.5350  164.0528 C.3     1  UNL1        0.2075
      5 O         140.9683  139.3579  163.9078 O.3     1  UNL1       -0.4726
      6 C         141.6111  140.2666  164.9132 C.ar    1  UNL1        0.1696
      7 C         142.8520  140.9037  164.3616 C.ar    1  UNL1        0.1115
      8 C         143.6488  141.8512  165.2087 C.ar    1  UNL1        0.1564
      9 F         144.8896  142.4883  164.6571 F       1  UNL1       -0.2028
     10 C         143.2045  142.1616  166.6075 C.ar    1  UNL1        0.0326
     11 C         141.9636  141.5245  167.1591 C.ar    1  UNL1        0.0214
     12 C         141.7046  141.9730  168.5718 C.ar    1  UNL1        0.0075
     13 C         140.4824  141.3920  169.2187 C.ar    1  UNL1        0.0702
     14 C         139.6152  140.4331  168.4582 C.ar    1  UNL1        0.2619
     15 O         138.3930  139.8520  169.1052 O.2     1  UNL1       -0.2669
     16 N         139.9703  140.0553  167.0507 N.ar    1  UNL1       -0.2945
     17 C         141.1669  140.5769  166.3120 C.ar    1  UNL1        0.0979
     18 N         143.2962  140.5934  162.9630 N.pl3   1  UNL1       -0.3033
     19 C         143.9283  139.3135  162.5021 C.3     1  UNL1        0.0910
     20 C         144.2090  139.4375  161.0339 C.3     1  UNL1        0.0244
     21 C         143.7504  140.7941  160.5872 C.3     1  UNL1        0.0344
     22 C         143.1863  141.5084  161.7794 C.3     1  UNL1        0.0922
     23 C         143.8403  141.3403  159.1931 C.3     1  UNL1        0.0406
     24 N         144.0981  140.0731  158.4330 N.3     1  UNL1       -0.3231
     25 C         143.8406  142.3265  158.0629 C.3     1  UNL1        0.0156
     26 C         143.6136  142.7971  159.4690 C.3     1  UNL1        0.0156
     27 H         144.1272  139.2870  159.0824 H       1  UNL1        0.1188
     28 H         144.9913  140.1447  157.9456 H       1  UNL1        0.1188
     29 C         140.1274  141.7699  170.6263 C.2     1  UNL1        0.0775
     30 O         139.2259  142.9408  170.8838 O.co2   1  UNL1       -0.5444
     31 O         140.6738  140.9768  171.7763 O.co2   1  UNL1       -0.5444
@<TRIPOS>UNITY_ATOM_ATTR
30 1
charge -1
@<TRIPOS>BOND
     1     2     1    1
     2     2     3    1
     3     3     4    1
     4     4     5    1
     5     5     6    1
     6     6     7   ar
     7     7    18    1
     8    18    19    1
     9    19    20    1
    10    20    21    1
    11    21    23    1
    12    23    24    1
    13    23    25    1
    14    25    26    1
    15    21    22    1
    16     7     8   ar
    17     8     9    1
    18     8    10   ar
    19    10    11   ar
    20    11    12   ar
    21    12    13   ar
    22    13    29    1
    23    29    30   ar
    24    29    31   ar
    25    13    14   ar
    26    14    15    2
    27    14    16   ar
    28    16    17   ar
    29    16     2    1
    30    17     6   ar
    31    22    18    1
    32    17    11   ar
    33    26    23    1
    34    24    27    1
    35    24    28    1
@<TRIPOS>MOLECULE
*****
 31 35 0 0 0
SMALL
GASTEIGER

@<TRIPOS>ATOM
      1 C         143.8196  138.2761  166.5906 C.3     1  UNL1        0.0247
      2 C         143.2420  139.3310  165.6942 C.3     1  UNL1        0.0923
      3 C         143.6764  139.2752  164.2595 C.3     1  UNL1        0.0699
      4 C         143.2824  140.1768  163.1274 C.3     1  UNL1        0.2075
      5 O         142.3567  141.3569  163.1501 O.3     1  UNL1       -0.4726
      6 C         141.5963  141.9268  164.3107 C.ar    1  UNL1        0.1696
      7 C         140.7808  143.1169  163.9003 C.ar    1  UNL1        0.1115
      8 C         139.9428  143.8377  164.9144 C.ar    1  UNL1        0.1564
      9 F         139.1273  145.0279  164.5040 F       1  UNL1       -0.2028
     10 C         139.9204  143.3683  166.3389 C.ar    1  UNL1        0.0326
     11 C         140.7359  142.1781  166.7493 C.ar    1  UNL1        0.0214
     12 C         140.5666  141.8828  168.2150 C.ar    1  UNL1        0.0075
     13 C         141.3427  140.7069  168.7295 C.ar    1  UNL1        0.0702
     14 C         142.2125  139.9165  167.7974 C.ar    1  UNL1        0.2619
     15 O         142.9886  138.7405  168.3120 O.2     1  UNL1       -0.2669
     16 N         142.3062  140.3022  166.3509 N.ar    1  UNL1       -0.2945
     17 C         141.5739  141.4573  165.7352 C.ar    1  UNL1        0.0979
     18 N         140.8033  143.5863  162.4759 N.pl3   1  UNL1       -0.3033
     19 C         141.7417  144.6036  161.8974 C.3     1  UNL1        0.0910
     20 C         141.4097  144.7669  160.4438 C.3     1  UNL1        0.0244
     21 C         140.2661  143.8504  160.1238 C.3     1  UNL1        0.0344
     22 C         139.8914  143.1209  161.3796 C.3     1  UNL1        0.0922
     23 C         139.6121  143.6916  158.7832 C.3     1  UNL1        0.0406
     24 N         138.4001  142.9003  159.1769 N.3     1  UNL1       -0.3231
     25 C         139.3789  143.8075  157.3060 C.3     1  UNL1        0.0156
     26 C         140.5969  144.4277  157.9241 C.3     1  UNL1        0.0156
     27 H         138.4141  142.7349  160.1833 H       1  UNL1        0.1188
     28 H         138.4032  142.0065  158.6854 H       1  UNL1        0.1188
     29 C         141.2489  140.3212  170.1761 C.2     1  UNL1        0.0775
     30 O         140.0959  139.4913  170.6578 O.co2   1  UNL1       -0.5444
     31 O         142.3081  140.7655  171.1409 O.co2   1  UNL1       -0.5444
@<TRIPOS>UNITY_ATOM_ATTR
30 1
charge -1
@<TRIPOS>BOND
     1     2     1    1
     2     2     3    1
     3     3     4    1
     4     4     5    1
     5     5     6    1
     6     6     7   ar
     7     7    18    1
     8    18    19    1
     9    19    20    1
    10    20    21    1
    11    21    23    1
    12    23    24    1
    13    23    25    1
    14    25    26    1
    15    21    22    1
    16     7     8   ar
    17     8     9    1
    18     8    10   ar
    19    10    11   ar
    20    11    12   ar
    21    12    13   ar
    22    13    29    1
    23    29    30   ar
    24    29    31   ar
    25    13    14   ar
    26    14    15    2
    27    14    16   ar
    28    16    17   ar
    29    16     2    1
    30    17     6   ar
    31    22    18    1
    32    17    11   ar
    33    26    23    1
    34    24    27    1
    35    24    28    1
@<TRIPOS>MOLECULE
*****
 31 35 0 0 0
SMALL
GASTEIGER

@<TRIPOS>ATOM
      1 C         143.3511  142.4587  168.0336 C.3     1  UNL1        0.0247
      2 C         142.8510  141.8488  166.7578 C.3     1  UNL1        0.0923
      3 C         143.7119  142.0697  165.5494 C.3     1  UNL1        0.0699
      4 C         143.4906  141.5949  164.1440 C.3     1  UNL1        0.2075
      5 O         142.3536  140.7820  163.5995 O.3     1  UNL1       -0.4726
      6 C         141.1571  140.2431  164.3261 C.ar    1  UNL1        0.1696
      7 C         140.2544  139.4784  163.4040 C.ar    1  UNL1        0.1115
      8 C         138.9967  138.8545  163.9324 C.ar    1  UNL1        0.1564
      9 F         138.0941  138.0898  163.0102 F       1  UNL1       -0.2028
     10 C         138.6418  138.9954  165.3830 C.ar    1  UNL1        0.0326
     11 C         139.5445  139.7601  166.3051 C.ar    1  UNL1        0.0214
     12 C         139.0005  139.7763  167.7080 C.ar    1  UNL1        0.0075
     13 C         139.8310  140.5180  168.7129 C.ar    1  UNL1        0.0702
     14 C         141.1088  141.1791  168.2884 C.ar    1  UNL1        0.2619
     15 O         141.9394  141.9209  169.2934 O.2     1  UNL1       -0.2669
     16 N         141.5559  141.0985  166.8589 N.ar    1  UNL1       -0.2945
     17 C         140.8022  140.3840  165.7767 C.ar    1  UNL1        0.0979
     18 N         140.6094  139.3375  161.9535 N.pl3   1  UNL1       -0.3033
     19 C         140.1606  140.2418  160.8440 C.3     1  UNL1        0.0910
     20 C         140.7493  139.7308  159.5626 C.3     1  UNL1        0.0244
     21 C         141.5620  138.5106  159.8799 C.3     1  UNL1        0.0344
     22 C         141.4755  138.2676  161.3575 C.3     1  UNL1        0.0922
     23 C         142.3269  137.6795  158.8929 C.3     1  UNL1        0.0406
     24 N         143.1629  136.8625  159.8329 N.3     1  UNL1       -0.3231
     25 C         142.8014  137.1321  157.5794 C.3     1  UNL1        0.0156
     26 C         141.7565  138.2078  157.6102 C.3     1  UNL1        0.0156
     27 H         142.9490  137.1261  160.7948 H       1  UNL1        0.1188
     28 H         144.1508  137.0334  159.6453 H       1  UNL1        0.1188
     29 C         139.3838  140.5986  170.1425 C.2     1  UNL1        0.0775
     30 O         139.3970  139.3698  171.0028 O.co2   1  UNL1       -0.5444
     31 O         138.9235  141.9078  170.7117 O.co2   1  UNL1       -0.5444
@<TRIPOS>UNITY_ATOM_ATTR
30 1
charge -1
@<TRIPOS>BOND
     1     2     1    1
     2     2     3    1
     3     3     4    1
     4     4     5    1
     5     5     6    1
     6     6     7   ar
     7     7    18    1
     8    18    19    1
     9    19    20    1
    10    20    21    1
    11    21    23    1
    12    23    24    1
    13    23    25    1
    14    25    26    1
    15    21    22    1
    16     7     8   ar
    17     8     9    1
    18     8    10   ar
    19    10    11   ar
    20    11    12   ar
    21    12    13   ar
    22    13    29    1
    23    29    30   ar
    24    29    31   ar
    25    13    14   ar
    26    14    15    2
    27    14    16   ar
    28    16    17   ar
    29    16     2    1
    30    17     6   ar
    31    22    18    1
    32    17    11   ar
    33    26    23    1
    34    24    27    1
    35    24    28    1
@<TRIPOS>MOLECULE
*****
 31 35 0 0 0
SMALL
GASTEIGER

@<TRIPOS>ATOM
      1 C         143.3232  142.5071  167.8419 C.3     1  UNL1        0.0247
      2 C         142.8591  141.7581  166.6279 C.3     1  UNL1        0.0923
      3 C         143.7114  141.9119  165.4030 C.3     1  UNL1        0.0699
      4 C         143.5191  141.2999  164.0472 C.3     1  UNL1        0.2075
      5 O         142.4273  140.3830  163.5811 O.3     1  UNL1       -0.4726
      6 C         141.2579  139.8517  164.3559 C.ar    1  UNL1        0.1696
      7 C         140.3988  138.9603  163.5089 C.ar    1  UNL1        0.1115
      8 C         139.1733  138.3232  164.0942 C.ar    1  UNL1        0.1564
      9 F         138.3142  137.4319  163.2472 F       1  UNL1       -0.2028
     10 C         138.8071  138.5776  165.5264 C.ar    1  UNL1        0.0326
     11 C         139.6662  139.4689  166.3734 C.ar    1  UNL1        0.0214
     12 C         139.1178  139.5850  167.7697 C.ar    1  UNL1        0.0075
     13 C         139.9058  140.4573  168.7013 C.ar    1  UNL1        0.0702
     14 C         141.1491  141.1420  168.2161 C.ar    1  UNL1        0.2619
     15 O         141.9371  142.0143  169.1478 O.2     1  UNL1       -0.2669
     16 N         141.6042  140.9543  166.7992 N.ar    1  UNL1       -0.2945
     17 C         140.8917  140.1060  165.7881 C.ar    1  UNL1        0.0979
     18 N         140.7651  138.7061  162.0768 N.pl3   1  UNL1       -0.3033
     19 C         142.0282  138.0588  161.5913 C.3     1  UNL1        0.0910
     20 C         141.9763  138.0071  160.0931 C.3     1  UNL1        0.0244
     21 C         140.6811  138.6224  159.6526 C.3     1  UNL1        0.0344
     22 C         139.9326  139.0544  160.8786 C.3     1  UNL1        0.0922
     23 C         140.2163  138.7783  158.2350 C.3     1  UNL1        0.0406
     24 N         138.8632  139.3818  158.4696 N.3     1  UNL1       -0.3231
     25 C         140.2212  138.7247  156.7360 C.3     1  UNL1        0.0156
     26 C         141.4078  138.2290  157.5082 C.3     1  UNL1        0.0156
     27 H         138.7062  139.4853  159.4721 H       1  UNL1        0.1188
     28 H         138.1463  138.7734  158.0742 H       1  UNL1        0.1188
     29 C         139.4506  140.6449  170.1183 C.2     1  UNL1        0.0775
     30 O         139.5406  139.5072  171.0918 O.co2   1  UNL1       -0.5444
     31 O         138.9054  141.9701  170.5616 O.co2   1  UNL1       -0.5444
@<TRIPOS>UNITY_ATOM_ATTR
30 1
charge -1
@<TRIPOS>BOND
     1     2     1    1
     2     2     3    1
     3     3     4    1
     4     4     5    1
     5     5     6    1
     6     6     7   ar
     7     7    18    1
     8    18    19    1
     9    19    20    1
    10    20    21    1
    11    21    23    1
    12    23    24    1
    13    23    25    1
    14    25    26    1
    15    21    22    1
    16     7     8   ar
    17     8     9    1
    18     8    10   ar
    19    10    11   ar
    20    11    12   ar
    21    12    13   ar
    22    13    29    1
    23    29    30   ar
    24    29    31   ar
    25    13    14   ar
    26    14    15    2
    27    14    16   ar
    28    16    17   ar
    29    16     2    1
    30    17     6   ar
    31    22    18    1
    32    17    11   ar
    33    26    23    1
    34    24    27    1
    35    24    28    1
@<TRIPOS>MOLECULE
*****
 31 35 0 0 0
SMALL
GASTEIGER

@<TRIPOS>ATOM
      1 C         144.1174  141.8972  159.6036 C.3     1  UNL1        0.0247
      2 C         143.2089  141.6971  160.7803 C.3     1  UNL1        0.0923
      3 C         143.5673  140.5625  161.6938 C.3     1  UNL1        0.0699
      4 C         142.8675  140.1087  162.9404 C.3     1  UNL1        0.2075
      5 O         141.6363  140.6773  163.5816 O.3     1  UNL1       -0.4726
      6 C         140.8010  141.8402  163.1344 C.ar    1  UNL1        0.1696
      7 C         139.6502  142.0787  164.0664 C.ar    1  UNL1        0.1115
      8 C         138.6887  143.1988  163.7996 C.ar    1  UNL1        0.1564
      9 F         137.5379  143.4374  164.7316 F       1  UNL1       -0.2028
     10 C         138.8782  144.0803  162.6008 C.ar    1  UNL1        0.0326
     11 C         140.0291  143.8418  161.6689 C.ar    1  UNL1        0.0214
     12 C         140.0291  144.8364  160.5397 C.ar    1  UNL1        0.0075
     13 C         141.1433  144.6849  159.5472 C.ar    1  UNL1        0.0702
     14 C         142.1599  143.5957  159.7213 C.ar    1  UNL1        0.2619
     15 O         143.2742  143.4441  158.7286 O.2     1  UNL1       -0.2669
     16 N         142.0620  142.6580  160.8880 N.ar    1  UNL1       -0.2945
     17 C         140.9905  142.7217  161.9356 C.ar    1  UNL1        0.0979
     18 N         139.4607  141.1973  165.2651 N.pl3   1  UNL1       -0.3033
     19 C         138.5437  140.0134  165.3530 C.3     1  UNL1        0.0910
     20 C         138.6712  139.4294  166.7286 C.3     1  UNL1        0.0244
     21 C         139.6671  140.2521  167.4911 C.3     1  UNL1        0.0344
     22 C         140.1550  141.3447  166.5866 C.3     1  UNL1        0.0922
     23 C         140.0991  140.0226  168.9091 C.3     1  UNL1        0.0406
     24 N         138.7599  139.9508  169.5810 N.3     1  UNL1       -0.3231
     25 C         140.9961  139.8179  170.0938 C.3     1  UNL1        0.0156
     26 C         141.5882  140.0146  168.7297 C.3     1  UNL1        0.0156
     27 H         138.0237  140.0758  168.8861 H       1  UNL1        0.1188
     28 H         138.6923  140.6866  170.2841 H       1  UNL1        0.1188
     29 C         141.2411  145.6225  158.3804 C.2     1  UNL1        0.0775
     30 O         140.0371  145.8829  157.5245 O.co2   1  UNL1       -0.5444
     31 O         142.5429  146.2998  158.0696 O.co2   1  UNL1       -0.5444
@<TRIPOS>UNITY_ATOM_ATTR
30 1
charge -1
@<TRIPOS>BOND
     1     2     1    1
     2     2     3    1
     3     3     4    1
     4     4     5    1
     5     5     6    1
     6     6     7   ar
     7     7    18    1
     8    18    19    1
     9    19    20    1
    10    20    21    1
    11    21    23    1
    12    23    24    1
    13    23    25    1
    14    25    26    1
    15    21    22    1
    16     7     8   ar
    17     8     9    1
    18     8    10   ar
    19    10    11   ar
    20    11    12   ar
    21    12    13   ar
    22    13    29    1
    23    29    30   ar
    24    29    31   ar
    25    13    14   ar
    26    14    15    2
    27    14    16   ar
    28    16    17   ar
    29    16     2    1
    30    17     6   ar
    31    22    18    1
    32    17    11   ar
    33    26    23    1
    34    24    27    1
    35    24    28    1
@<TRIPOS>MOLECULE
*****
 31 35 0 0 0
SMALL
GASTEIGER

@<TRIPOS>ATOM
      1 C         144.6964  142.4703  160.0157 C.3     1  UNL1        0.0247
      2 C         144.1909  141.8658  161.2921 C.3     1  UNL1        0.0923
      3 C         144.5417  142.6082  162.5475 C.3     1  UNL1        0.0699
      4 C         144.1897  142.2669  163.9650 C.3     1  UNL1        0.2075
      5 O         143.4000  141.0991  164.4775 O.3     1  UNL1       -0.4726
      6 C         142.7672  139.9841  163.6988 C.ar    1  UNL1        0.1696
      7 C         142.0655  139.0140  164.6025 C.ar    1  UNL1        0.1115
      8 C         141.3645  137.8213  164.0227 C.ar    1  UNL1        0.1564
      9 F         140.6628  136.8512  164.9264 F       1  UNL1       -0.2028
     10 C         141.3652  137.5987  162.5393 C.ar    1  UNL1        0.0326
     11 C         142.0669  138.5688  161.6357 C.ar    1  UNL1        0.0214
     12 C         141.9428  138.1558  160.1941 C.ar    1  UNL1        0.0075
     13 C         142.6123  139.0620  159.2040 C.ar    1  UNL1        0.0702
     14 C         143.3417  140.2836  159.6791 C.ar    1  UNL1        0.2619
     15 O         144.0112  141.1899  158.6889 O.2     1  UNL1       -0.2669
     16 N         143.4015  140.5989  161.1444 N.ar    1  UNL1       -0.2945
     17 C         142.7679  139.7615  162.2154 C.ar    1  UNL1        0.0979
     18 N         142.0649  139.2366  166.0858 N.pl3   1  UNL1       -0.3033
     19 C         143.1196  138.7746  167.0472 C.3     1  UNL1        0.0910
     20 C         142.7159  139.2128  168.4238 C.3     1  UNL1        0.0244
     21 C         141.4117  139.9456  168.3133 C.3     1  UNL1        0.0344
     22 C         141.0094  139.9603  166.8684 C.3     1  UNL1        0.0922
     23 C         140.6447  140.5563  169.4484 C.3     1  UNL1        0.0406
     24 N         140.7845  139.4689  170.4722 N.3     1  UNL1       -0.3231
     25 C         139.8290  141.5447  170.2281 C.3     1  UNL1        0.0156
     26 C         140.2385  141.8558  168.8190 C.3     1  UNL1        0.0156
     27 H         141.3314  138.7019  170.0809 H       1  UNL1        0.1188
     28 H         139.8597  139.1279  170.7345 H       1  UNL1        0.1188
     29 C         142.5524  138.7467  157.7387 C.2     1  UNL1        0.0775
     30 O         141.2719  138.9399  156.9817 O.co2   1  UNL1       -0.5444
     31 O         143.7731  138.2383  157.0304 O.co2   1  UNL1       -0.5444
@<TRIPOS>UNITY_ATOM_ATTR
30 1
charge -1
@<TRIPOS>BOND
     1     2     1    1
     2     2     3    1
     3     3     4    1
     4     4     5    1
     5     5     6    1
     6     6     7   ar
     7     7    18    1
     8    18    19    1
     9    19    20    1
    10    20    21    1
    11    21    23    1
    12    23    24    1
    13    23    25    1
    14    25    26    1
    15    21    22    1
    16     7     8   ar
    17     8     9    1
    18     8    10   ar
    19    10    11   ar
    20    11    12   ar
    21    12    13   ar
    22    13    29    1
    23    29    30   ar
    24    29    31   ar
    25    13    14   ar
    26    14    15    2
    27    14    16   ar
    28    16    17   ar
    29    16     2    1
    30    17     6   ar
    31    22    18    1
    32    17    11   ar
    33    26    23    1
    34    24    27    1
    35    24    28    1
@<TRIPOS>MOLECULE
*****
 31 35 0 0 0
SMALL
GASTEIGER

@<TRIPOS>ATOM
      1 C         138.4955  138.9908  160.2102 C.3     1  UNL1        0.0247
      2 C         139.3027  139.2142  161.4546 C.3     1  UNL1        0.0923
      3 C         138.5199  139.5755  162.6822 C.3     1  UNL1        0.0699
      4 C         139.0271  139.8585  164.0650 C.3     1  UNL1        0.2075
      5 O         140.4423  139.8502  164.5622 O.3     1  UNL1       -0.4726
      6 C         141.6999  139.5567  163.7990 C.ar    1  UNL1        0.1696
      7 C         142.9108  139.6575  164.6786 C.ar    1  UNL1        0.1115
      8 C         144.2747  139.4006  164.1094 C.ar    1  UNL1        0.1564
      9 F         145.4855  139.5013  164.9890 F       1  UNL1       -0.2028
     10 C         144.4276  139.0431  162.6607 C.ar    1  UNL1        0.0326
     11 C         143.2167  138.9423  161.7811 C.ar    1  UNL1        0.0214
     12 C         143.5973  138.5740  160.3727 C.ar    1  UNL1        0.0075
     13 C         142.4553  138.4471  159.4086 C.ar    1  UNL1        0.0702
     14 C         141.0496  138.6834  159.8757 C.ar    1  UNL1        0.2619
     15 O         139.9076  138.5565  158.9115 O.2     1  UNL1       -0.2669
     16 N         140.7861  139.0467  161.3070 N.ar    1  UNL1       -0.2945
     17 C         141.8528  139.1992  162.3503 C.ar    1  UNL1        0.0979
     18 N         142.7578  140.0150  166.1272 N.pl3   1  UNL1       -0.3033
     19 C         142.8230  139.0606  167.2826 C.3     1  UNL1        0.0910
     20 C         142.6182  139.8455  168.5443 C.3     1  UNL1        0.0244
     21 C         142.4266  141.2850  168.1689 C.3     1  UNL1        0.0344
     22 C         142.5128  141.3897  166.6750 C.3     1  UNL1        0.0922
     23 C         142.1901  142.4204  169.1202 C.3     1  UNL1        0.0406
     24 N         143.6000  142.6969  169.5512 N.3     1  UNL1       -0.3231
     25 C         141.4642  143.4597  169.9219 C.3     1  UNL1        0.0156
     26 C         140.6982  142.5381  169.0196 C.3     1  UNL1        0.0156
     27 H         144.2329  142.0517  169.0782 H       1  UNL1        0.1188
     28 H         143.6780  142.5711  170.5604 H       1  UNL1        0.1188
     29 C         142.7190  138.0838  157.9773 C.2     1  UNL1        0.0775
     30 O         143.5502  138.9871  157.1151 O.co2   1  UNL1       -0.5444
     31 O         142.1514  136.8173  157.4082 O.co2   1  UNL1       -0.5444
@<TRIPOS>UNITY_ATOM_ATTR
30 1
charge -1
@<TRIPOS>BOND
     1     2     1    1
     2     2     3    1
     3     3     4    1
     4     4     5    1
     5     5     6    1
     6     6     7   ar
     7     7    18    1
     8    18    19    1
     9    19    20    1
    10    20    21    1
    11    21    23    1
    12    23    24    1
    13    23    25    1
    14    25    26    1
    15    21    22    1
    16     7     8   ar
    17     8     9    1
    18     8    10   ar
    19    10    11   ar
    20    11    12   ar
    21    12    13   ar
    22    13    29    1
    23    29    30   ar
    24    29    31   ar
    25    13    14   ar
    26    14    15    2
    27    14    16   ar
    28    16    17   ar
    29    16     2    1
    30    17     6   ar
    31    22    18    1
    32    17    11   ar
    33    26    23    1
    34    24    27    1
    35    24    28    1
@<TRIPOS>MOLECULE
*****
 31 35 0 0 0
SMALL
GASTEIGER

@<TRIPOS>ATOM
      1 C         143.4456  142.2999  168.5779 C.3     1  UNL1        0.0247
      2 C         142.8878  142.2694  167.1858 C.3     1  UNL1        0.0923
      3 C         143.7274  142.9311  166.1335 C.3     1  UNL1        0.0699
      4 C         143.4507  143.0680  164.6657 C.3     1  UNL1        0.2075
      5 O         142.2661  142.5771  163.8874 O.3     1  UNL1       -0.4726
      6 C         141.0656  141.8279  164.3849 C.ar    1  UNL1        0.1696
      7 C         140.1078  141.5257  163.2707 C.ar    1  UNL1        0.1115
      8 C         138.8375  140.7803  163.5552 C.ar    1  UNL1        0.1564
      9 F         137.8797  140.4782  162.4410 F       1  UNL1       -0.2028
     10 C         138.5251  140.3371  164.9537 C.ar    1  UNL1        0.0326
     11 C         139.4829  140.6393  166.0679 C.ar    1  UNL1        0.0214
     12 C         138.9751  140.1067  167.3804 C.ar    1  UNL1        0.0075
     13 C         139.8619  140.3567  168.5639 C.ar    1  UNL1        0.0702
     14 C         141.1564  141.0939  168.3887 C.ar    1  UNL1        0.2619
     15 O         142.0433  141.3439  169.5724 O.2     1  UNL1       -0.2669
     16 N         141.5641  141.5811  167.0299 N.ar    1  UNL1       -0.2945
     17 C         140.7532  141.3847  165.7835 C.ar    1  UNL1        0.0979
     18 N         140.4202  141.9690  161.8723 N.pl3   1  UNL1       -0.3033
     19 C         140.9068  141.0915  160.7571 C.3     1  UNL1        0.0910
     20 C         141.0882  141.9477  159.5390 C.3     1  UNL1        0.0244
     21 C         140.7138  143.3544  159.9011 C.3     1  UNL1        0.0344
     22 C         140.3009  143.3675  161.3431 C.3     1  UNL1        0.0922
     23 C         140.7464  144.5397  158.9825 C.3     1  UNL1        0.0406
     24 N         141.6657  145.4408  159.7527 N.3     1  UNL1       -0.3231
     25 C         140.4599  145.4122  157.7965 C.3     1  UNL1        0.0156
     26 C         139.8386  144.0504  157.8934 C.3     1  UNL1        0.0156
     27 H         141.9567  144.9752  160.6123 H       1  UNL1        0.1188
     28 H         141.1785  146.3068  159.9832 H       1  UNL1        0.1188
     29 C         139.4542  139.8695  169.9228 C.2     1  UNL1        0.0775
     30 O         140.4670  139.2287  170.8248 O.co2   1  UNL1       -0.5444
     31 O         138.0337  140.0232  170.3796 O.co2   1  UNL1       -0.5444
@<TRIPOS>UNITY_ATOM_ATTR
30 1
charge -1
@<TRIPOS>BOND
     1     2     1    1
     2     2     3    1
     3     3     4    1
     4     4     5    1
     5     5     6    1
     6     6     7   ar
     7     7    18    1
     8    18    19    1
     9    19    20    1
    10    20    21    1
    11    21    23    1
    12    23    24    1
    13    23    25    1
    14    25    26    1
    15    21    22    1
    16     7     8   ar
    17     8     9    1
    18     8    10   ar
    19    10    11   ar
    20    11    12   ar
    21    12    13   ar
    22    13    29    1
    23    29    30   ar
    24    29    31   ar
    25    13    14   ar
    26    14    15    2
    27    14    16   ar
    28    16    17   ar
    29    16     2    1
    30    17     6   ar
    31    22    18    1
    32    17    11   ar
    33    26    23    1
    34    24    27    1
    35    24    28    1
