@<TRIPOS>MOLECULE
*****
 33 37 0 0 0
SMALL
GASTEIGER

@<TRIPOS>ATOM
      1 N         142.9479  144.1443  162.5716 N.3     1  UNL1       -0.2723
      2 C         142.2433  144.6798  163.7826 C.3     1  UNL1        0.0735
      3 C         140.7836  145.0179  163.7127 C.3     1  UNL1        0.0331
      4 C         140.0285  144.8205  162.4317 C.3     1  UNL1        0.0570
      5 C         140.7331  144.2849  161.2207 C.3     1  UNL1        0.0331
      6 C         142.1929  143.9469  161.2906 C.3     1  UNL1        0.0735
      7 N         138.5688  145.1585  162.3618 N.3     1  UNL1       -0.2934
      8 H         138.3114  145.1498  161.3749 H       1  UNL1        0.1236
      9 C         137.5658  144.3038  163.0784 C.3     1  UNL1        0.1152
     10 C         137.7756  142.8217  163.1742 C.ar    1  UNL1        0.0782
     11 C         138.0753  142.1908  164.5017 C.ar    1  UNL1        0.0562
     12 C         138.2852  140.7086  164.5975 C.ar    1  UNL1        0.1752
     13 C         138.1954  139.8573  163.3657 C.ar    1  UNL1        0.1914
     14 C         137.8957  140.4881  162.0382 C.ar    1  UNL1        0.1384
     15 N         137.6858  141.9702  161.9424 N.ar    1  UNL1       -0.2434
     16 O         138.4052  138.3751  163.4615 O.3     1  UNL1       -0.4668
     17 C         138.7049  137.7443  164.7890 C.3     1  UNL1        0.2527
     18 C         138.7947  138.5957  166.0208 C.3     1  UNL1        0.2526
     19 O         138.5848  140.0778  165.9250 O.3     1  UNL1       -0.4683
     20 C         144.4076  143.8062  162.6415 C.3     1  UNL1        0.0768
     21 C         144.9116  142.8737  163.7029 C.3     1  UNL1        0.0438
     22 C         142.7311  141.4770  167.3832 C.ar    1  UNL1        0.1388
     23 C         142.2085  140.0730  167.4577 C.ar    1  UNL1        0.0384
     24 C         142.4128  139.1345  166.3055 C.ar    1  UNL1        0.0222
     25 C         143.1396  139.6001  165.0788 C.ar    1  UNL1        0.0812
     26 N         143.3438  138.6616  163.9266 N.ar    1  UNL1       -0.2439
     27 C         144.0707  139.1272  162.6998 C.ar    1  UNL1        0.0985
     28 C         144.5933  140.5313  162.6252 C.ar    1  UNL1        0.0165
     29 C         144.3890  141.4697  163.7774 C.ar    1  UNL1       -0.0177
     30 C         143.6622  141.0041  165.0042 C.ar    1  UNL1        0.0168
     31 C         143.4579  141.9425  166.1564 C.ar    1  UNL1        0.0381
     32 C         143.4861  142.4073  169.6884 C.3     1  UNL1        0.2525
     33 O         142.5268  142.4155  168.5354 O.3     1  UNL1       -0.4714
@<TRIPOS>BOND
     1    32    33    1
     2    33    22    1
     3    22    23   ar
     4    23    24   ar
     5    24    25   ar
     6    25    26   ar
     7    26    27   ar
     8    27    28   ar
     9    28    29   ar
    10    29    21    1
    11    21    20    1
    12    20     1    1
    13     1     2    1
    14     2     3    1
    15     3     4    1
    16     4     7    1
    17     7     9    1
    18     9    10    1
    19    10    11   ar
    20    11    12   ar
    21    12    13   ar
    22    13    14   ar
    23    14    15   ar
    24    13    16    1
    25    16    17    1
    26    17    18    1
    27    18    19    1
    28     4     5    1
    29     5     6    1
    30    29    30   ar
    31    30    31   ar
    32    31    22   ar
    33    30    25   ar
    34     6     1    1
    35    15    10   ar
    36    19    12    1
    37     7     8    1
@<TRIPOS>MOLECULE
*****
 33 37 0 0 0
SMALL
GASTEIGER

@<TRIPOS>ATOM
      1 N         142.1659  137.9629  164.1129 N.3     1  UNL1       -0.2723
      2 C         142.8777  138.7233  165.1924 C.3     1  UNL1        0.0735
      3 C         144.0176  139.6331  164.8421 C.3     1  UNL1        0.0331
      4 C         144.4458  139.7826  163.4122 C.3     1  UNL1        0.0570
      5 C         143.7341  139.0222  162.3328 C.3     1  UNL1        0.0331
      6 C         142.5941  138.1124  162.6832 C.3     1  UNL1        0.0735
      7 N         145.5858  140.6924  163.0619 N.3     1  UNL1       -0.2934
      8 H         145.6648  140.6872  162.0450 H       1  UNL1        0.1236
      9 C         145.5553  142.1306  163.4867 C.3     1  UNL1        0.1152
     10 C         144.3140  142.9473  163.2809 C.ar    1  UNL1        0.0782
     11 C         143.8744  143.3070  161.8926 C.ar    1  UNL1        0.0562
     12 C         142.6331  144.1237  161.6869 C.ar    1  UNL1        0.1752
     13 C         141.8314  144.5805  162.8695 C.ar    1  UNL1        0.1914
     14 C         142.2709  144.2207  164.2578 C.ar    1  UNL1        0.1384
     15 N         143.5122  143.4041  164.4635 N.ar    1  UNL1       -0.2434
     16 O         140.5900  145.3972  162.6638 O.3     1  UNL1       -0.4668
     17 C         140.1505  145.7569  161.2755 C.3     1  UNL1        0.2527
     18 C         140.9523  145.3000  160.0929 C.3     1  UNL1        0.2526
     19 O         142.1936  144.4834  160.2987 O.3     1  UNL1       -0.4683
     20 C         141.0260  137.0531  164.4632 C.3     1  UNL1        0.0768
     21 C         139.6781  137.6285  164.7829 C.3     1  UNL1        0.0438
     22 C         139.4862  142.0560  165.5640 C.ar    1  UNL1        0.1388
     23 C         138.8054  142.9621  164.5815 C.ar    1  UNL1        0.0384
     24 C         138.1884  142.3924  163.3386 C.ar    1  UNL1        0.0222
     25 C         138.2523  140.9166  163.0782 C.ar    1  UNL1        0.0812
     26 N         137.6354  140.3468  161.8353 N.ar    1  UNL1       -0.2439
     27 C         137.6993  138.8710  161.5750 C.ar    1  UNL1        0.0985
     28 C         138.3802  137.9648  162.5575 C.ar    1  UNL1        0.0165
     29 C         138.9972  138.5346  163.8004 C.ar    1  UNL1       -0.0177
     30 C         138.9332  140.0105  164.0607 C.ar    1  UNL1        0.0168
     31 C         139.5502  140.5802  165.3036 C.ar    1  UNL1        0.0381
     32 C         141.3992  142.0735  167.3219 C.3     1  UNL1        0.2525
     33 O         140.1032  142.6258  166.8069 O.3     1  UNL1       -0.4714
@<TRIPOS>BOND
     1    32    33    1
     2    33    22    1
     3    22    23   ar
     4    23    24   ar
     5    24    25   ar
     6    25    26   ar
     7    26    27   ar
     8    27    28   ar
     9    28    29   ar
    10    29    21    1
    11    21    20    1
    12    20     1    1
    13     1     2    1
    14     2     3    1
    15     3     4    1
    16     4     7    1
    17     7     9    1
    18     9    10    1
    19    10    11   ar
    20    11    12   ar
    21    12    13   ar
    22    13    14   ar
    23    14    15   ar
    24    13    16    1
    25    16    17    1
    26    17    18    1
    27    18    19    1
    28     4     5    1
    29     5     6    1
    30    29    30   ar
    31    30    31   ar
    32    31    22   ar
    33    30    25   ar
    34     6     1    1
    35    15    10   ar
    36    19    12    1
    37     7     8    1
@<TRIPOS>MOLECULE
*****
 33 37 0 0 0
SMALL
GASTEIGER

@<TRIPOS>ATOM
      1 N         139.0634  143.9550  162.6971 N.3     1  UNL1       -0.2723
      2 C         139.6680  144.6183  163.8990 C.3     1  UNL1        0.0735
      3 C         141.1032  145.0535  163.8729 C.3     1  UNL1        0.0331
      4 C         141.9339  144.8254  162.6448 C.3     1  UNL1        0.0570
      5 C         141.3293  144.1621  161.4430 C.3     1  UNL1        0.0331
      6 C         139.8940  143.7269  161.4691 C.3     1  UNL1        0.0735
      7 N         143.3691  145.2606  162.6187 N.3     1  UNL1       -0.2934
      8 H         143.3713  146.2747  162.7287 H       1  UNL1        0.1236
      9 C         144.3371  144.7137  163.6256 C.3     1  UNL1        0.1152
     10 C         144.3365  143.2488  163.9478 C.ar    1  UNL1        0.0782
     11 C         143.5934  142.7456  165.1497 C.ar    1  UNL1        0.0562
     12 C         143.5927  141.2805  165.4720 C.ar    1  UNL1        0.1752
     13 C         144.3351  140.3188  164.5923 C.ar    1  UNL1        0.1914
     14 C         145.0782  140.8220  163.3904 C.ar    1  UNL1        0.1384
     15 N         145.0788  142.2869  163.0681 N.ar    1  UNL1       -0.2434
     16 O         144.3345  138.8538  164.9145 O.3     1  UNL1       -0.4668
     17 C         143.5914  138.3506  166.1165 C.3     1  UNL1        0.2527
     18 C         142.8490  139.3124  166.9962 C.3     1  UNL1        0.2526
     19 O         142.8497  140.7773  166.6739 O.3     1  UNL1       -0.4683
     20 C         137.6282  143.5198  162.7233 C.3     1  UNL1        0.0768
     21 C         137.2492  142.2239  163.3770 C.3     1  UNL1        0.0438
     22 C         138.5266  138.8591  166.0781 C.ar    1  UNL1        0.1388
     23 C         138.9883  137.5589  165.4895 C.ar    1  UNL1        0.0384
     24 C         139.0242  137.3804  164.0006 C.ar    1  UNL1        0.0222
     25 C         138.5984  138.5020  163.1002 C.ar    1  UNL1        0.0812
     26 N         138.6343  138.3234  161.6113 N.ar    1  UNL1       -0.2439
     27 C         138.2085  139.4450  160.7110 C.ar    1  UNL1        0.0985
     28 C         137.7468  140.7453  161.2995 C.ar    1  UNL1        0.0165
     29 C         137.7109  140.9238  162.7884 C.ar    1  UNL1       -0.0177
     30 C         138.1367  139.8021  163.6888 C.ar    1  UNL1        0.0168
     31 C         138.1008  139.9807  165.1777 C.ar    1  UNL1        0.0381
     32 C         139.4321  139.9988  168.2300 C.3     1  UNL1        0.2525
     33 O         138.4907  139.0376  167.5670 O.3     1  UNL1       -0.4714
@<TRIPOS>BOND
     1    32    33    1
     2    33    22    1
     3    22    23   ar
     4    23    24   ar
     5    24    25   ar
     6    25    26   ar
     7    26    27   ar
     8    27    28   ar
     9    28    29   ar
    10    29    21    1
    11    21    20    1
    12    20     1    1
    13     1     2    1
    14     2     3    1
    15     3     4    1
    16     4     7    1
    17     7     9    1
    18     9    10    1
    19    10    11   ar
    20    11    12   ar
    21    12    13   ar
    22    13    14   ar
    23    14    15   ar
    24    13    16    1
    25    16    17    1
    26    17    18    1
    27    18    19    1
    28     4     5    1
    29     5     6    1
    30    29    30   ar
    31    30    31   ar
    32    31    22   ar
    33    30    25   ar
    34     6     1    1
    35    15    10   ar
    36    19    12    1
    37     7     8    1
@<TRIPOS>MOLECULE
*****
 33 37 0 0 0
SMALL
GASTEIGER

@<TRIPOS>ATOM
      1 N         137.8981  142.9727  162.8852 N.3     1  UNL1       -0.2723
      2 C         137.6386  141.8491  163.8445 C.3     1  UNL1        0.0735
      3 C         137.6307  140.4314  163.3546 C.3     1  UNL1        0.0331
      4 C         137.8823  140.1373  161.9053 C.3     1  UNL1        0.0570
      5 C         138.1417  141.2609  160.9461 C.3     1  UNL1        0.0331
      6 C         138.1497  142.6786  161.4360 C.3     1  UNL1        0.0735
      7 N         137.8743  138.7196  161.4154 N.3     1  UNL1       -0.2934
      8 H         137.3124  138.7053  160.5643 H       1  UNL1        0.1236
      9 C         139.1669  138.0304  161.0925 C.3     1  UNL1        0.1152
     10 C         140.3643  138.2311  161.9733 C.ar    1  UNL1        0.0782
     11 C         141.4205  139.2243  161.5885 C.ar    1  UNL1        0.0562
     12 C         142.6179  139.4250  162.4694 C.ar    1  UNL1        0.1752
     13 C         142.7592  138.6324  163.7350 C.ar    1  UNL1        0.1914
     14 C         141.7031  137.6392  164.1198 C.ar    1  UNL1        0.1384
     15 N         140.5057  137.4385  163.2390 N.ar    1  UNL1       -0.2434
     16 O         143.9567  138.8331  164.6159 O.3     1  UNL1       -0.4668
     17 C         145.0128  139.8263  164.2311 C.3     1  UNL1        0.2527
     18 C         144.8715  140.6189  162.9654 C.3     1  UNL1        0.2526
     19 O         143.6740  140.4182  162.0846 O.3     1  UNL1       -0.4683
     20 C         137.9060  144.3904  163.3751 C.3     1  UNL1        0.0768
     21 C         138.9042  144.8213  164.4086 C.3     1  UNL1        0.0438
     22 C         140.8903  141.9670  167.2649 C.ar    1  UNL1        0.1388
     23 C         142.3407  141.6242  167.0955 C.ar    1  UNL1        0.0384
     24 C         143.1291  142.2329  165.9739 C.ar    1  UNL1        0.0222
     25 C         142.4671  143.1843  165.0218 C.ar    1  UNL1        0.0812
     26 N         143.2555  143.7929  163.9002 N.ar    1  UNL1       -0.2439
     27 C         142.5936  144.7444  162.9481 C.ar    1  UNL1        0.0985
     28 C         141.1431  145.0872  163.1176 C.ar    1  UNL1        0.0165
     29 C         140.3546  144.4785  164.2391 C.ar    1  UNL1       -0.0177
     30 C         141.0167  143.5271  165.1913 C.ar    1  UNL1        0.0168
     31 C         140.2283  142.9184  166.3128 C.ar    1  UNL1        0.0381
     32 C         139.4531  140.0180  168.2062 C.3     1  UNL1        0.2525
     33 O         140.1018  141.3583  168.3865 O.3     1  UNL1       -0.4714
@<TRIPOS>BOND
     1    32    33    1
     2    33    22    1
     3    22    23   ar
     4    23    24   ar
     5    24    25   ar
     6    25    26   ar
     7    26    27   ar
     8    27    28   ar
     9    28    29   ar
    10    29    21    1
    11    21    20    1
    12    20     1    1
    13     1     2    1
    14     2     3    1
    15     3     4    1
    16     4     7    1
    17     7     9    1
    18     9    10    1
    19    10    11   ar
    20    11    12   ar
    21    12    13   ar
    22    13    14   ar
    23    14    15   ar
    24    13    16    1
    25    16    17    1
    26    17    18    1
    27    18    19    1
    28     4     5    1
    29     5     6    1
    30    29    30   ar
    31    30    31   ar
    32    31    22   ar
    33    30    25   ar
    34     6     1    1
    35    15    10   ar
    36    19    12    1
    37     7     8    1
@<TRIPOS>MOLECULE
*****
 33 37 0 0 0
SMALL
GASTEIGER

@<TRIPOS>ATOM
      1 N         137.9924  139.8801  162.1419 N.3     1  UNL1       -0.2723
      2 C         137.5952  140.5702  163.4132 C.3     1  UNL1        0.0735
      3 C         137.5445  142.0682  163.4691 C.3     1  UNL1        0.0331
      4 C         137.8910  142.8763  162.2538 C.3     1  UNL1        0.0570
      5 C         138.2882  142.1863  160.9825 C.3     1  UNL1        0.0331
      6 C         138.3389  140.6881  160.9266 C.3     1  UNL1        0.0735
      7 N         137.8403  144.3744  162.3097 N.3     1  UNL1       -0.2934
      8 H         137.0626  144.6200  162.9222 H       1  UNL1        0.1236
      9 C         139.0319  145.1477  162.7915 C.3     1  UNL1        0.1152
     10 C         140.3194  144.4361  163.0845 C.ar    1  UNL1        0.0782
     11 C         141.3095  144.1934  161.9841 C.ar    1  UNL1        0.0562
     12 C         142.5970  143.4817  162.2771 C.ar    1  UNL1        0.1752
     13 C         142.8944  143.0127  163.6705 C.ar    1  UNL1        0.1914
     14 C         141.9043  143.2554  164.7709 C.ar    1  UNL1        0.1384
     15 N         140.6169  143.9670  164.4779 N.ar    1  UNL1       -0.2434
     16 O         144.1820  142.3010  163.9636 O.3     1  UNL1       -0.4668
     17 C         145.1721  142.0584  162.8632 C.3     1  UNL1        0.2527
     18 C         144.8746  142.5275  161.4697 C.3     1  UNL1        0.2526
     19 O         143.5871  143.2391  161.1768 O.3     1  UNL1       -0.4683
     20 C         138.0431  138.3821  162.0860 C.3     1  UNL1        0.0768
     21 C         138.8970  137.6236  163.0585 C.3     1  UNL1        0.0438
     22 C         140.2215  139.6077  166.8741 C.ar    1  UNL1        0.1388
     23 C         141.6607  139.9861  167.0623 C.ar    1  UNL1        0.0384
     24 C         142.6585  139.7031  165.9786 C.ar    1  UNL1        0.0222
     25 C         142.2170  139.0417  164.7067 C.ar    1  UNL1        0.0812
     26 N         143.2147  138.7587  163.6230 N.ar    1  UNL1       -0.2439
     27 C         142.7733  138.0974  162.3511 C.ar    1  UNL1        0.0985
     28 C         141.3340  137.7190  162.1629 C.ar    1  UNL1        0.0165
     29 C         140.3362  138.0020  163.2466 C.ar    1  UNL1       -0.0177
     30 C         140.7778  138.6634  164.5185 C.ar    1  UNL1        0.0168
     31 C         139.7800  138.9464  165.6023 C.ar    1  UNL1        0.0381
     32 C         139.6882  140.3957  169.2917 C.3     1  UNL1        0.2525
     33 O         139.2238  139.8907  167.9578 O.3     1  UNL1       -0.4714
@<TRIPOS>BOND
     1    32    33    1
     2    33    22    1
     3    22    23   ar
     4    23    24   ar
     5    24    25   ar
     6    25    26   ar
     7    26    27   ar
     8    27    28   ar
     9    28    29   ar
    10    29    21    1
    11    21    20    1
    12    20     1    1
    13     1     2    1
    14     2     3    1
    15     3     4    1
    16     4     7    1
    17     7     9    1
    18     9    10    1
    19    10    11   ar
    20    11    12   ar
    21    12    13   ar
    22    13    14   ar
    23    14    15   ar
    24    13    16    1
    25    16    17    1
    26    17    18    1
    27    18    19    1
    28     4     5    1
    29     5     6    1
    30    29    30   ar
    31    30    31   ar
    32    31    22   ar
    33    30    25   ar
    34     6     1    1
    35    15    10   ar
    36    19    12    1
    37     7     8    1
@<TRIPOS>MOLECULE
*****
 33 37 0 0 0
SMALL
GASTEIGER

@<TRIPOS>ATOM
      1 N         139.5179  137.7908  164.5073 N.3     1  UNL1       -0.2723
      2 C         140.9647  137.5779  164.8414 C.3     1  UNL1        0.0735
      3 C         141.9867  137.5186  163.7452 C.3     1  UNL1        0.0331
      4 C         141.5621  137.6721  162.3147 C.3     1  UNL1        0.0570
      5 C         140.1153  137.8851  161.9806 C.3     1  UNL1        0.0331
      6 C         139.0933  137.9444  163.0770 C.3     1  UNL1        0.0735
      7 N         142.5841  137.6128  161.2184 N.3     1  UNL1       -0.2934
      8 H         142.1190  137.9225  160.3651 H       1  UNL1        0.1236
      9 C         143.8527  138.4051  161.3320 C.3     1  UNL1        0.1152
     10 C         143.7944  139.8957  161.4894 C.ar    1  UNL1        0.0782
     11 C         143.9761  140.5146  162.8436 C.ar    1  UNL1        0.0562
     12 C         143.9178  142.0053  163.0009 C.ar    1  UNL1        0.1752
     13 C         143.6779  142.8769  161.8040 C.ar    1  UNL1        0.1914
     14 C         143.4963  142.2580  160.4497 C.ar    1  UNL1        0.1384
     15 N         143.5545  140.7674  160.2924 N.ar    1  UNL1       -0.2434
     16 O         143.6196  144.3675  161.9613 O.3     1  UNL1       -0.4668
     17 C         143.8013  144.9865  163.3155 C.3     1  UNL1        0.2527
     18 C         144.0412  144.1147  164.5125 C.3     1  UNL1        0.2526
     19 O         144.0994  142.6242  164.3551 O.3     1  UNL1       -0.4683
     20 C         138.4959  137.8502  165.6036 C.3     1  UNL1        0.0768
     21 C         138.0728  139.1759  166.1636 C.3     1  UNL1        0.0438
     22 C         138.5901  142.7972  163.5428 C.ar    1  UNL1        0.1388
     23 C         139.6221  143.8301  163.8861 C.ar    1  UNL1        0.0384
     24 C         140.4818  143.6560  165.1029 C.ar    1  UNL1        0.0222
     25 C         140.3093  142.4490  165.9765 C.ar    1  UNL1        0.0812
     26 N         141.1690  142.2749  167.1934 N.ar    1  UNL1       -0.2439
     27 C         140.9966  141.0678  168.0670 C.ar    1  UNL1        0.0985
     28 C         139.9645  140.0348  167.7238 C.ar    1  UNL1        0.0165
     29 C         139.1049  140.2089  166.5069 C.ar    1  UNL1       -0.0177
     30 C         139.2773  141.4160  165.6333 C.ar    1  UNL1        0.0168
     31 C         138.4177  141.5901  164.4164 C.ar    1  UNL1        0.0381
     32 C         138.2180  142.4966  160.9892 C.3     1  UNL1        0.2525
     33 O         137.7305  142.9713  162.3260 O.3     1  UNL1       -0.4714
@<TRIPOS>BOND
     1    32    33    1
     2    33    22    1
     3    22    23   ar
     4    23    24   ar
     5    24    25   ar
     6    25    26   ar
     7    26    27   ar
     8    27    28   ar
     9    28    29   ar
    10    29    21    1
    11    21    20    1
    12    20     1    1
    13     1     2    1
    14     2     3    1
    15     3     4    1
    16     4     7    1
    17     7     9    1
    18     9    10    1
    19    10    11   ar
    20    11    12   ar
    21    12    13   ar
    22    13    14   ar
    23    14    15   ar
    24    13    16    1
    25    16    17    1
    26    17    18    1
    27    18    19    1
    28     4     5    1
    29     5     6    1
    30    29    30   ar
    31    30    31   ar
    32    31    22   ar
    33    30    25   ar
    34     6     1    1
    35    15    10   ar
    36    19    12    1
    37     7     8    1
@<TRIPOS>MOLECULE
*****
 33 37 0 0 0
SMALL
GASTEIGER

@<TRIPOS>ATOM
      1 N         139.8561  138.2293  164.1909 N.3     1  UNL1       -0.2723
      2 C         139.2194  139.0802  165.2494 C.3     1  UNL1        0.0735
      3 C         138.2525  140.1598  164.8628 C.3     1  UNL1        0.0331
      4 C         137.9222  140.3886  163.4176 C.3     1  UNL1        0.0570
      5 C         138.5589  139.5377  162.3590 C.3     1  UNL1        0.0331
      6 C         139.5259  138.4580  162.7457 C.3     1  UNL1        0.0735
      7 N         136.9553  141.4682  163.0310 N.3     1  UNL1       -0.2934
      8 H         136.2010  141.4474  163.7172 H       1  UNL1        0.1236
      9 C         137.4182  142.8920  162.9392 C.3     1  UNL1        0.1152
     10 C         138.8495  143.1954  162.6084 C.ar    1  UNL1        0.0782
     11 C         139.7434  143.8136  163.6423 C.ar    1  UNL1        0.0562
     12 C         141.1747  144.1171  163.3115 C.ar    1  UNL1        0.1752
     13 C         141.7120  143.8024  161.9469 C.ar    1  UNL1        0.1914
     14 C         140.8181  143.1842  160.9130 C.ar    1  UNL1        0.1384
     15 N         139.3869  142.8807  161.2438 N.ar    1  UNL1       -0.2434
     16 O         143.1433  144.1058  161.6160 O.3     1  UNL1       -0.4668
     17 C         144.0372  144.7240  162.6499 C.3     1  UNL1        0.2527
     18 C         143.4998  145.0387  164.0145 C.3     1  UNL1        0.2526
     19 O         142.0685  144.7353  164.3453 O.3     1  UNL1       -0.4683
     20 C         140.8230  137.1497  164.5775 C.3     1  UNL1        0.0768
     21 C         142.1972  137.5107  165.0585 C.3     1  UNL1        0.0438
     22 C         142.3309  140.7026  168.2277 C.ar    1  UNL1        0.1388
     23 C         142.9065  142.0509  167.9104 C.ar    1  UNL1        0.0384
     24 C         143.4376  142.3352  166.5366 C.ar    1  UNL1        0.0222
     25 C         143.3930  141.2713  165.4803 C.ar    1  UNL1        0.0812
     26 N         143.9241  141.5556  164.1065 N.ar    1  UNL1       -0.2439
     27 C         143.8795  140.4917  163.0502 C.ar    1  UNL1        0.0985
     28 C         143.3039  139.1433  163.3675 C.ar    1  UNL1        0.0165
     29 C         142.7728  138.8590  164.7412 C.ar    1  UNL1       -0.0177
     30 C         142.8174  139.9230  165.7976 C.ar    1  UNL1        0.0168
     31 C         142.2863  139.6387  167.1713 C.ar    1  UNL1        0.0381
     32 C         140.3211  140.3040  169.8251 C.3     1  UNL1        0.2525
     33 O         141.7999  140.4183  169.6015 O.3     1  UNL1       -0.4714
@<TRIPOS>BOND
     1    32    33    1
     2    33    22    1
     3    22    23   ar
     4    23    24   ar
     5    24    25   ar
     6    25    26   ar
     7    26    27   ar
     8    27    28   ar
     9    28    29   ar
    10    29    21    1
    11    21    20    1
    12    20     1    1
    13     1     2    1
    14     2     3    1
    15     3     4    1
    16     4     7    1
    17     7     9    1
    18     9    10    1
    19    10    11   ar
    20    11    12   ar
    21    12    13   ar
    22    13    14   ar
    23    14    15   ar
    24    13    16    1
    25    16    17    1
    26    17    18    1
    27    18    19    1
    28     4     5    1
    29     5     6    1
    30    29    30   ar
    31    30    31   ar
    32    31    22   ar
    33    30    25   ar
    34     6     1    1
    35    15    10   ar
    36    19    12    1
    37     7     8    1
@<TRIPOS>MOLECULE
*****
 33 37 0 0 0
SMALL
GASTEIGER

@<TRIPOS>ATOM
      1 N         144.2381  142.2081  163.6457 N.3     1  UNL1       -0.2723
      2 C         144.3972  143.1409  162.4818 C.3     1  UNL1        0.0735
      3 C         143.5042  144.3392  162.3535 C.3     1  UNL1        0.0331
      4 C         142.4519  144.6048  163.3890 C.3     1  UNL1        0.0570
      5 C         142.2927  143.6720  164.5528 C.3     1  UNL1        0.0331
      6 C         143.1858  142.4736  164.6812 C.3     1  UNL1        0.0735
      7 N         141.5588  145.8030  163.2606 N.3     1  UNL1       -0.2934
      8 H         142.1514  146.5827  162.9755 H       1  UNL1        0.1236
      9 C         140.3962  145.7739  162.3133 C.3     1  UNL1        0.1152
     10 C         139.5918  144.5182  162.1515 C.ar    1  UNL1        0.0782
     11 C         139.8563  143.6020  160.9937 C.ar    1  UNL1        0.0562
     12 C         139.0518  142.3463  160.8320 C.ar    1  UNL1        0.1752
     13 C         137.9830  142.0068  161.8281 C.ar    1  UNL1        0.1914
     14 C         137.7185  142.9231  162.9859 C.ar    1  UNL1        0.1384
     15 N         138.5229  144.1787  163.1477 N.ar    1  UNL1       -0.2434
     16 O         137.1785  140.7511  161.6664 O.3     1  UNL1       -0.4668
     17 C         137.4430  139.8348  160.5086 C.3     1  UNL1        0.2527
     18 C         138.5119  140.1743  159.5125 C.3     1  UNL1        0.2526
     19 O         139.3163  141.4300  159.6742 O.3     1  UNL1       -0.4683
     20 C         145.1311  141.0099  163.7741 C.3     1  UNL1        0.0768
     21 C         144.5636  139.6962  164.2239 C.3     1  UNL1        0.0438
     22 C         140.3677  138.9641  165.6761 C.ar    1  UNL1        0.1388
     23 C         139.3898  138.2321  164.8055 C.ar    1  UNL1        0.0384
     24 C         139.8105  137.7441  163.4510 C.ar    1  UNL1        0.0222
     25 C         141.2091  137.9881  162.9669 C.ar    1  UNL1        0.0812
     26 N         141.6298  137.5002  161.6123 N.ar    1  UNL1       -0.2439
     27 C         143.0284  137.7442  161.1283 C.ar    1  UNL1        0.0985
     28 C         144.0064  138.4762  161.9988 C.ar    1  UNL1        0.0165
     29 C         143.5857  138.9642  163.3534 C.ar    1  UNL1       -0.0177
     30 C         142.1870  138.7202  163.8374 C.ar    1  UNL1        0.0168
     31 C         141.7663  139.2081  165.1920 C.ar    1  UNL1        0.0381
     32 C         139.9743  140.9194  167.3411 C.3     1  UNL1        0.2525
     33 O         139.9470  139.4521  167.0306 O.3     1  UNL1       -0.4714
@<TRIPOS>BOND
     1    32    33    1
     2    33    22    1
     3    22    23   ar
     4    23    24   ar
     5    24    25   ar
     6    25    26   ar
     7    26    27   ar
     8    27    28   ar
     9    28    29   ar
    10    29    21    1
    11    21    20    1
    12    20     1    1
    13     1     2    1
    14     2     3    1
    15     3     4    1
    16     4     7    1
    17     7     9    1
    18     9    10    1
    19    10    11   ar
    20    11    12   ar
    21    12    13   ar
    22    13    14   ar
    23    14    15   ar
    24    13    16    1
    25    16    17    1
    26    17    18    1
    27    18    19    1
    28     4     5    1
    29     5     6    1
    30    29    30   ar
    31    30    31   ar
    32    31    22   ar
    33    30    25   ar
    34     6     1    1
    35    15    10   ar
    36    19    12    1
    37     7     8    1
@<TRIPOS>MOLECULE
*****
 33 37 0 0 0
SMALL
GASTEIGER

@<TRIPOS>ATOM
      1 N         143.0531  144.1186  162.4381 N.3     1  UNL1       -0.2723
      2 C         142.2503  143.8165  161.2075 C.3     1  UNL1        0.0735
      3 C         140.7950  144.1756  161.1546 C.3     1  UNL1        0.0331
      4 C         140.1422  144.8367  162.3323 C.3     1  UNL1        0.0570
      5 C         140.9450  145.1388  163.5628 C.3     1  UNL1        0.0331
      6 C         142.4004  144.7797  163.6158 C.3     1  UNL1        0.0735
      7 N         138.6868  145.1958  162.2793 N.3     1  UNL1       -0.2934
      8 H         138.4093  145.1564  161.2986 H       1  UNL1        0.1236
      9 C         137.6855  144.3834  163.0457 C.3     1  UNL1        0.1152
     10 C         137.8749  142.9025  163.1911 C.ar    1  UNL1        0.0782
     11 C         138.2994  142.3266  164.5095 C.ar    1  UNL1        0.0562
     12 C         138.4888  140.8457  164.6549 C.ar    1  UNL1        0.1752
     13 C         138.2535  139.9408  163.4820 C.ar    1  UNL1        0.1914
     14 C         137.8290  140.5167  162.1637 C.ar    1  UNL1        0.1384
     15 N         137.6396  141.9975  162.0182 N.ar    1  UNL1       -0.2434
     16 O         138.4429  138.4598  163.6275 O.3     1  UNL1       -0.4668
     17 C         138.8674  137.8839  164.9458 C.3     1  UNL1        0.2527
     18 C         139.1027  138.7889  166.1188 C.3     1  UNL1        0.2526
     19 O         138.9133  140.2698  165.9733 O.3     1  UNL1       -0.4683
     20 C         144.5085  143.7595  162.4911 C.3     1  UNL1        0.0768
     21 C         144.9244  142.3190  162.5389 C.3     1  UNL1        0.0438
     22 C         143.1818  138.7976  160.3452 C.ar    1  UNL1        0.1388
     23 C         142.3395  137.7978  161.0806 C.ar    1  UNL1        0.0384
     24 C         142.0781  137.9719  162.5474 C.ar    1  UNL1        0.0222
     25 C         142.6589  139.1457  163.2787 C.ar    1  UNL1        0.0812
     26 N         142.3975  139.3197  164.7454 N.ar    1  UNL1       -0.2439
     27 C         142.9783  140.4935  165.4767 C.ar    1  UNL1        0.0985
     28 C         143.8207  141.4933  164.7412 C.ar    1  UNL1        0.0165
     29 C         144.0821  141.3193  163.2744 C.ar    1  UNL1       -0.0177
     30 C         143.5012  140.1454  162.5432 C.ar    1  UNL1        0.0168
     31 C         143.7626  139.9714  161.0764 C.ar    1  UNL1        0.0381
     32 C         142.6594  137.6156  158.0913 C.3     1  UNL1        0.2525
     33 O         143.4432  138.6236  158.8784 O.3     1  UNL1       -0.4714
@<TRIPOS>BOND
     1    32    33    1
     2    33    22    1
     3    22    23   ar
     4    23    24   ar
     5    24    25   ar
     6    25    26   ar
     7    26    27   ar
     8    27    28   ar
     9    28    29   ar
    10    29    21    1
    11    21    20    1
    12    20     1    1
    13     1     2    1
    14     2     3    1
    15     3     4    1
    16     4     7    1
    17     7     9    1
    18     9    10    1
    19    10    11   ar
    20    11    12   ar
    21    12    13   ar
    22    13    14   ar
    23    14    15   ar
    24    13    16    1
    25    16    17    1
    26    17    18    1
    27    18    19    1
    28     4     5    1
    29     5     6    1
    30    29    30   ar
    31    30    31   ar
    32    31    22   ar
    33    30    25   ar
    34     6     1    1
    35    15    10   ar
    36    19    12    1
    37     7     8    1
