@<TRIPOS>MOLECULE
*****
 23 25 0 0 0
SMALL
GASTEIGER

@<TRIPOS>ATOM
      1 C         140.7676  141.5400  164.2789 C.2     1  UNL1        0.2486
      2 O         140.0508  141.0010  163.0765 O.2     1  UNL1       -0.2699
      3 N         140.5871  140.8845  165.6159 N.am    1  UNL1       -0.2779
      4 C         141.0736  144.1092  164.0430 C.ar    1  UNL1       -0.0181
      5 C         141.9709  145.3036  163.9083 C.ar    1  UNL1       -0.0041
      6 C         143.4596  145.1232  163.8747 C.ar    1  UNL1       -0.0003
      7 C         144.0510  143.7485  163.9758 C.ar    1  UNL1        0.0001
      8 C         143.1537  142.5541  164.1105 C.ar    1  UNL1        0.0042
      9 C         141.6650  142.7345  164.1441 C.ar    1  UNL1        0.0496
     10 C         138.8865  144.5195  165.3841 C.3     1  UNL1        0.0047
     11 C         139.5848  144.2896  164.0766 C.3     1  UNL1        0.0225
     12 C         138.7944  144.2400  162.8028 C.3     1  UNL1        0.0047
     13 C         141.3039  141.4235  166.8183 C.3     1  UNL1        0.0926
     14 C         140.8022  142.4995  167.7351 C.3     1  UNL1        0.0383
     15 C         141.8365  142.7221  168.7984 C.3     1  UNL1        0.0704
     16 N         142.9775  141.7837  168.5388 N.3     1  UNL1       -0.2960
     17 C         142.6484  140.9811  167.3150 C.3     1  UNL1        0.0887
     18 H         143.1026  141.1616  169.3374 H       1  UNL1        0.1233
     19 C         139.6898  139.6901  165.7506 C.3     1  UNL1        0.0756
     20 C         138.4923  139.5836  166.6477 C.3     1  UNL1        0.0198
     21 C         137.8949  138.2201  166.4634 C.3     1  UNL1        0.0018
     22 C         138.7232  137.4838  165.4524 C.3     1  UNL1        0.0018
     23 C         139.8325  138.3924  165.0119 C.3     1  UNL1        0.0198
@<TRIPOS>BOND
     1    10    11    1
     2    11    12    1
     3    11     4    1
     4     4     5   ar
     5     5     6   ar
     6     6     7   ar
     7     7     8   ar
     8     8     9   ar
     9     9     1    1
    10     1     2    2
    11     1     3   am
    12     3    19    1
    13    19    20    1
    14    20    21    1
    15    21    22    1
    16    22    23    1
    17    13     3    1
    18    13    14    1
    19    14    15    1
    20    15    16    1
    21    16    17    1
    22     9     4   ar
    23    23    19    1
    24    17    13    1
    25    16    18    1
@<TRIPOS>MOLECULE
*****
 23 25 0 0 0
SMALL
GASTEIGER

@<TRIPOS>ATOM
      1 C         141.5295  141.1469  165.1245 C.2     1  UNL1        0.2486
      2 O         142.9391  140.6611  165.2885 O.2     1  UNL1       -0.2699
      3 N         141.2523  142.3923  164.3357 N.am    1  UNL1       -0.2779
      4 C         140.1177  140.5291  167.2162 C.ar    1  UNL1       -0.0181
      5 C         138.9852  139.7694  167.8409 C.ar    1  UNL1       -0.0041
      6 C         138.1319  138.8679  166.9987 C.ar    1  UNL1       -0.0003
      7 C         138.4111  138.7261  165.5318 C.ar    1  UNL1        0.0001
      8 C         139.5436  139.4858  164.9071 C.ar    1  UNL1        0.0042
      9 C         140.3969  140.3872  165.7493 C.ar    1  UNL1        0.0496
     10 C         142.2187  140.8989  168.6990 C.3     1  UNL1        0.0047
     11 C         140.9709  141.4305  168.0584 C.3     1  UNL1        0.0225
     12 C         140.5764  142.8636  168.2599 C.3     1  UNL1        0.0047
     13 C         139.8427  142.8781  164.1717 C.3     1  UNL1        0.0926
     14 C         139.1048  143.7786  165.1175 C.3     1  UNL1        0.0383
     15 C         137.7295  144.0058  164.5634 C.3     1  UNL1        0.0704
     16 N         137.6174  143.2456  163.2752 N.3     1  UNL1       -0.2960
     17 C         138.9234  142.5486  163.0331 C.3     1  UNL1        0.0887
     18 H         137.4216  143.8898  162.5090 H       1  UNL1        0.1233
     19 C         142.3849  143.1520  163.7109 C.3     1  UNL1        0.0756
     20 C         142.7926  144.5571  164.0416 C.3     1  UNL1        0.0198
     21 C         143.9682  144.9134  163.1808 C.3     1  UNL1        0.0018
     22 C         144.2872  143.7284  162.3181 C.3     1  UNL1        0.0018
     23 C         143.3085  142.6397  162.6458 C.3     1  UNL1        0.0198
@<TRIPOS>BOND
     1    10    11    1
     2    11    12    1
     3    11     4    1
     4     4     5   ar
     5     5     6   ar
     6     6     7   ar
     7     7     8   ar
     8     8     9   ar
     9     9     1    1
    10     1     2    2
    11     1     3   am
    12     3    19    1
    13    19    20    1
    14    20    21    1
    15    21    22    1
    16    22    23    1
    17    13     3    1
    18    13    14    1
    19    14    15    1
    20    15    16    1
    21    16    17    1
    22     9     4   ar
    23    23    19    1
    24    17    13    1
    25    16    18    1
@<TRIPOS>MOLECULE
*****
 23 25 0 0 0
SMALL
GASTEIGER

@<TRIPOS>ATOM
      1 C         141.1355  140.0152  167.0384 C.2     1  UNL1        0.2486
      2 O         140.7607  139.4130  168.3601 O.2     1  UNL1       -0.2699
      3 N         141.5022  141.4671  166.9527 N.am    1  UNL1       -0.2779
      4 C         139.8565  138.8544  165.0975 C.ar    1  UNL1       -0.0181
      5 C         139.8647  138.0046  163.8615 C.ar    1  UNL1       -0.0041
      6 C         141.1599  137.4658  163.3303 C.ar    1  UNL1       -0.0003
      7 C         142.4469  137.7767  164.0351 C.ar    1  UNL1        0.0001
      8 C         142.4388  138.6265  165.2711 C.ar    1  UNL1        0.0042
      9 C         141.1436  139.1654  165.8023 C.ar    1  UNL1        0.0496
     10 C         137.8237  138.6497  166.7024 C.3     1  UNL1        0.0047
     11 C         138.5614  139.3933  165.6287 C.3     1  UNL1        0.0225
     12 C         138.0039  140.6758  165.0862 C.3     1  UNL1        0.0047
     13 C         141.8771  142.0693  165.6310 C.3     1  UNL1        0.0926
     14 C         140.9282  142.6576  164.6293 C.3     1  UNL1        0.0383
     15 C         141.7313  143.1408  163.4582 C.3     1  UNL1        0.0704
     16 N         143.1766  142.8511  163.7361 N.3     1  UNL1       -0.2960
     17 C         143.2666  142.1889  165.0790 C.3     1  UNL1        0.0887
     18 H         143.7089  143.7211  163.7427 H       1  UNL1        0.1233
     19 C         141.4942  142.3169  168.1888 C.3     1  UNL1        0.0756
     20 C         142.6216  142.4600  169.1678 C.3     1  UNL1        0.0198
     21 C         142.1814  143.4044  170.2469 C.3     1  UNL1        0.0018
     22 C         140.7819  143.8450  169.9348 C.3     1  UNL1        0.0018
     23 C         140.3571  143.1728  168.6628 C.3     1  UNL1        0.0198
@<TRIPOS>BOND
     1    10    11    1
     2    11    12    1
     3    11     4    1
     4     4     5   ar
     5     5     6   ar
     6     6     7   ar
     7     7     8   ar
     8     8     9   ar
     9     9     1    1
    10     1     2    2
    11     1     3   am
    12     3    19    1
    13    19    20    1
    14    20    21    1
    15    21    22    1
    16    22    23    1
    17    13     3    1
    18    13    14    1
    19    14    15    1
    20    15    16    1
    21    16    17    1
    22     9     4   ar
    23    23    19    1
    24    17    13    1
    25    16    18    1
@<TRIPOS>MOLECULE
*****
 23 25 0 0 0
SMALL
GASTEIGER

@<TRIPOS>ATOM
      1 C         140.3330  141.6319  166.4224 C.2     1  UNL1        0.2486
      2 O         140.7908  143.0425  166.1979 O.2     1  UNL1       -0.2699
      3 N         139.3375  141.0089  165.4893 N.am    1  UNL1       -0.2779
      4 C         142.1118  140.0185  167.4138 C.ar    1  UNL1       -0.0181
      5 C         142.6495  139.2309  168.5716 C.ar    1  UNL1       -0.0041
      6 C         141.9460  139.2690  169.8959 C.ar    1  UNL1       -0.0003
      7 C         140.7048  140.0947  170.0623 C.ar    1  UNL1        0.0001
      8 C         140.1672  140.8823  168.9045 C.ar    1  UNL1        0.0042
      9 C         140.8707  140.8442  167.5803 C.ar    1  UNL1        0.0496
     10 C         143.5554  141.1891  165.5984 C.3     1  UNL1        0.0047
     11 C         142.8153  139.9804  166.0896 C.3     1  UNL1        0.0225
     12 C         142.7788  138.7336  165.2565 C.3     1  UNL1        0.0047
     13 C         138.8797  139.5982  165.7139 C.3     1  UNL1        0.0926
     14 C         137.8940  139.1456  166.7500 C.3     1  UNL1        0.0383
     15 C         137.7323  137.6601  166.6182 C.3     1  UNL1        0.0704
     16 N         138.6180  137.1947  165.5007 N.3     1  UNL1       -0.2960
     17 C         139.3271  138.3926  164.9418 C.3     1  UNL1        0.0887
     18 H         138.0547  136.7550  164.7728 H       1  UNL1        0.1233
     19 C         138.7998  141.7966  164.3314 C.3     1  UNL1        0.0756
     20 C         137.7956  142.9079  164.4116 C.3     1  UNL1        0.0198
     21 C         137.5471  143.4093  163.0199 C.3     1  UNL1        0.0018
     22 C         138.3978  142.6079  162.0796 C.3     1  UNL1        0.0018
     23 C         139.1720  141.6111  162.8902 C.3     1  UNL1        0.0198
@<TRIPOS>BOND
     1    10    11    1
     2    11    12    1
     3    11     4    1
     4     4     5   ar
     5     5     6   ar
     6     6     7   ar
     7     7     8   ar
     8     8     9   ar
     9     9     1    1
    10     1     2    2
    11     1     3   am
    12     3    19    1
    13    19    20    1
    14    20    21    1
    15    21    22    1
    16    22    23    1
    17    13     3    1
    18    13    14    1
    19    14    15    1
    20    15    16    1
    21    16    17    1
    22     9     4   ar
    23    23    19    1
    24    17    13    1
    25    16    18    1
@<TRIPOS>MOLECULE
*****
 23 25 0 0 0
SMALL
GASTEIGER

@<TRIPOS>ATOM
      1 C         140.7522  141.9238  165.4617 C.2     1  UNL1        0.2486
      2 O         140.1887  142.0393  166.8471 O.2     1  UNL1       -0.2699
      3 N         140.4590  140.7093  164.6316 N.am    1  UNL1       -0.2779
      4 C         140.9712  144.2457  164.3167 C.ar    1  UNL1       -0.0181
      5 C         141.8279  145.3446  163.7616 C.ar    1  UNL1       -0.0041
      6 C         143.3224  145.2207  163.7962 C.ar    1  UNL1       -0.0003
      7 C         143.9601  143.9979  164.3860 C.ar    1  UNL1        0.0001
      8 C         143.1034  142.8989  164.9411 C.ar    1  UNL1        0.0042
      9 C         141.6089  143.0228  164.9065 C.ar    1  UNL1        0.0496
     10 C         138.7409  144.9074  165.4734 C.3     1  UNL1        0.0047
     11 C         139.4767  144.3696  164.2821 C.3     1  UNL1        0.0225
     12 C         138.7180  143.9556  163.0562 C.3     1  UNL1        0.0047
     13 C         141.0225  140.5939  163.2463 C.3     1  UNL1        0.0926
     14 C         140.3654  141.0698  161.9847 C.3     1  UNL1        0.0383
     15 C         141.2788  140.7523  160.8380 C.3     1  UNL1        0.0704
     16 N         142.5005  140.0801  161.3909 N.3     1  UNL1       -0.2960
     17 C         142.3420  139.9822  162.8793 C.3     1  UNL1        0.0887
     18 H         143.3297  140.6300  161.1665 H       1  UNL1        0.1233
     19 C         139.6023  139.6103  165.1868 C.3     1  UNL1        0.0756
     20 C         138.4644  139.7801  166.1493 C.3     1  UNL1        0.0198
     21 C         137.8919  138.4233  166.4343 C.3     1  UNL1        0.0018
     22 C         138.6760  137.4148  165.6479 C.3     1  UNL1        0.0018
     23 C         139.7331  138.1485  164.8769 C.3     1  UNL1        0.0198
@<TRIPOS>BOND
     1    10    11    1
     2    11    12    1
     3    11     4    1
     4     4     5   ar
     5     5     6   ar
     6     6     7   ar
     7     7     8   ar
     8     8     9   ar
     9     9     1    1
    10     1     2    2
    11     1     3   am
    12     3    19    1
    13    19    20    1
    14    20    21    1
    15    21    22    1
    16    22    23    1
    17    13     3    1
    18    13    14    1
    19    14    15    1
    20    15    16    1
    21    16    17    1
    22     9     4   ar
    23    23    19    1
    24    17    13    1
    25    16    18    1
@<TRIPOS>MOLECULE
*****
 23 25 0 0 0
SMALL
GASTEIGER

@<TRIPOS>ATOM
      1 C         139.8651  140.9794  166.1370 C.2     1  UNL1        0.2486
      2 O         139.8251  139.9188  167.1970 O.2     1  UNL1       -0.2699
      3 N         140.5014  142.3063  166.4273 N.am    1  UNL1       -0.2779
      4 C         139.9925  139.8378  163.8066 C.ar    1  UNL1       -0.0181
      5 C         139.3962  139.5715  162.4563 C.ar    1  UNL1       -0.0041
      6 C         138.0762  140.1802  162.0859 C.ar    1  UNL1       -0.0003
      7 C         137.3526  141.0553  163.0659 C.ar    1  UNL1        0.0001
      8 C         137.9489  141.3217  164.4163 C.ar    1  UNL1        0.0042
      9 C         139.2688  140.7130  164.7866 C.ar    1  UNL1        0.0496
     10 C         141.3664  137.8387  164.7370 C.3     1  UNL1        0.0047
     11 C         141.3125  139.2291  164.1769 C.3     1  UNL1        0.0225
     12 C         142.5785  140.0108  163.9871 C.3     1  UNL1        0.0047
     13 C         140.5414  143.3669  165.3674 C.3     1  UNL1        0.0926
     14 C         141.6237  143.5516  164.3454 C.3     1  UNL1        0.0383
     15 C         141.2574  144.7279  163.4896 C.3     1  UNL1        0.0704
     16 N         139.9486  145.2701  163.9827 N.3     1  UNL1       -0.2960
     17 C         139.5062  144.4289  165.1432 C.3     1  UNL1        0.0887
     18 H         139.2530  145.2259  163.2380 H       1  UNL1        0.1233
     19 C         141.0977  142.5727  167.7778 C.3     1  UNL1        0.0756
     20 C         140.4061  143.2361  168.9317 C.3     1  UNL1        0.0198
     21 C         141.3712  143.2959  170.0783 C.3     1  UNL1        0.0018
     22 C         142.6594  142.6694  169.6331 C.3     1  UNL1        0.0018
     23 C         142.4904  142.2224  168.2112 C.3     1  UNL1        0.0198
@<TRIPOS>BOND
     1    10    11    1
     2    11    12    1
     3    11     4    1
     4     4     5   ar
     5     5     6   ar
     6     6     7   ar
     7     7     8   ar
     8     8     9   ar
     9     9     1    1
    10     1     2    2
    11     1     3   am
    12     3    19    1
    13    19    20    1
    14    20    21    1
    15    21    22    1
    16    22    23    1
    17    13     3    1
    18    13    14    1
    19    14    15    1
    20    15    16    1
    21    16    17    1
    22     9     4   ar
    23    23    19    1
    24    17    13    1
    25    16    18    1
@<TRIPOS>MOLECULE
*****
 23 25 0 0 0
SMALL
GASTEIGER

@<TRIPOS>ATOM
      1 C         138.3504  140.9650  163.5788 C.2     1  UNL1        0.2486
      2 O         137.3434  142.0408  163.2985 O.2     1  UNL1       -0.2699
      3 N         139.0486  140.2769  162.4435 N.am    1  UNL1       -0.2779
      4 C         139.5575  141.4405  165.8298 C.ar    1  UNL1       -0.0181
      5 C         139.8662  141.0528  167.2455 C.ar    1  UNL1       -0.0041
      6 C         139.2766  139.8016  167.8261 C.ar    1  UNL1       -0.0003
      7 C         138.3782  138.9383  166.9909 C.ar    1  UNL1        0.0001
      8 C         138.0695  139.3261  165.5752 C.ar    1  UNL1        0.0042
      9 C         138.6592  140.5772  164.9946 C.ar    1  UNL1        0.0496
     10 C         141.4827  142.6453  164.5681 C.3     1  UNL1        0.0047
     11 C         140.1472  142.6916  165.2493 C.3     1  UNL1        0.0225
     12 C         139.4013  143.9891  165.3499 C.3     1  UNL1        0.0047
     13 C         140.0556  139.2011  162.7239 C.3     1  UNL1        0.0926
     14 C         141.4907  139.4143  163.1049 C.3     1  UNL1        0.0383
     15 C         142.1264  138.0682  163.2890 C.3     1  UNL1        0.0704
     16 N         141.0842  137.0230  163.0217 N.3     1  UNL1       -0.2960
     17 C         139.8044  137.7232  162.6724 C.3     1  UNL1        0.0887
     18 H         140.9486  136.4487  163.8536 H       1  UNL1        0.1233
     19 C         138.7399  140.6647  161.0277 C.3     1  UNL1        0.0756
     20 C         137.9504  139.8535  160.0435 C.3     1  UNL1        0.0198
     21 C         137.8890  140.6192  158.7552 C.3     1  UNL1        0.0018
     22 C         138.6406  141.9037  158.9431 C.3     1  UNL1        0.0018
     23 C         139.1665  141.9318  160.3477 C.3     1  UNL1        0.0198
@<TRIPOS>BOND
     1    10    11    1
     2    11    12    1
     3    11     4    1
     4     4     5   ar
     5     5     6   ar
     6     6     7   ar
     7     7     8   ar
     8     8     9   ar
     9     9     1    1
    10     1     2    2
    11     1     3   am
    12     3    19    1
    13    19    20    1
    14    20    21    1
    15    21    22    1
    16    22    23    1
    17    13     3    1
    18    13    14    1
    19    14    15    1
    20    15    16    1
    21    16    17    1
    22     9     4   ar
    23    23    19    1
    24    17    13    1
    25    16    18    1
@<TRIPOS>MOLECULE
*****
 23 25 0 0 0
SMALL
GASTEIGER

@<TRIPOS>ATOM
      1 C         142.2929  139.1209  166.4309 C.2     1  UNL1        0.2486
      2 O         143.4944  138.6944  167.2212 O.2     1  UNL1       -0.2699
      3 N         141.2708  140.0272  167.0504 N.am    1  UNL1       -0.2779
      4 C         142.8738  139.2929  163.9045 C.ar    1  UNL1       -0.0181
      5 C         142.6944  138.8130  162.4947 C.ar    1  UNL1       -0.0041
      6 C         141.7547  137.6812  162.2016 C.ar    1  UNL1       -0.0003
      7 C         140.9945  137.0292  163.3182 C.ar    1  UNL1        0.0001
      8 C         141.1739  137.5091  164.7280 C.ar    1  UNL1        0.0042
      9 C         142.1135  138.6410  165.0211 C.ar    1  UNL1        0.0496
     10 C         145.2892  140.1709  164.2848 C.3     1  UNL1        0.0047
     11 C         143.8135  140.4248  164.1976 C.3     1  UNL1        0.0225
     12 C         143.2774  141.8104  164.4035 C.3     1  UNL1        0.0047
     13 C         140.0693  140.4537  166.2602 C.3     1  UNL1        0.0926
     14 C         139.9366  141.7244  165.4742 C.3     1  UNL1        0.0383
     15 C         138.5749  141.7404  164.8454 C.3     1  UNL1        0.0704
     16 N         137.8660  140.4797  165.2427 N.3     1  UNL1       -0.2960
     17 C         138.7896  139.6844  166.1171 C.3     1  UNL1        0.0887
     18 H         137.6268  139.9401  164.4108 H       1  UNL1        0.1233
     19 C         141.4502  140.5071  168.4603 C.3     1  UNL1        0.0756
     20 C         140.9050  139.8476  169.6923 C.3     1  UNL1        0.0198
     21 C         141.3241  140.6637  170.8790 C.3     1  UNL1        0.0018
     22 C         142.1284  141.8276  170.3805 C.3     1  UNL1        0.0018
     23 C         142.2064  141.7308  168.8855 C.3     1  UNL1        0.0198
@<TRIPOS>BOND
     1    10    11    1
     2    11    12    1
     3    11     4    1
     4     4     5   ar
     5     5     6   ar
     6     6     7   ar
     7     7     8   ar
     8     8     9   ar
     9     9     1    1
    10     1     2    2
    11     1     3   am
    12     3    19    1
    13    19    20    1
    14    20    21    1
    15    21    22    1
    16    22    23    1
    17    13     3    1
    18    13    14    1
    19    14    15    1
    20    15    16    1
    21    16    17    1
    22     9     4   ar
    23    23    19    1
    24    17    13    1
    25    16    18    1
@<TRIPOS>MOLECULE
*****
 23 25 0 0 0
SMALL
GASTEIGER

@<TRIPOS>ATOM
      1 C         140.4354  142.3176  165.4670 C.2     1  UNL1        0.2486
      2 O         139.9367  143.7317  165.5089 O.2     1  UNL1       -0.2699
      3 N         141.6485  141.9739  164.6546 N.am    1  UNL1       -0.2779
      4 C         139.9580  141.0986  167.7112 C.ar    1  UNL1       -0.0181
      5 C         139.2434  140.0282  168.4816 C.ar    1  UNL1       -0.0041
      6 C         138.2916  139.1065  167.7785 C.ar    1  UNL1       -0.0003
      7 C         138.0543  139.2552  166.3049 C.ar    1  UNL1        0.0001
      8 C         138.7689  140.3255  165.5344 C.ar    1  UNL1        0.0042
      9 C         139.7207  141.2472  166.2376 C.ar    1  UNL1        0.0496
     10 C         140.4043  143.2874  169.0377 C.3     1  UNL1        0.0047
     11 C         140.9099  142.0203  168.4143 C.3     1  UNL1        0.0225
     12 C         142.3674  141.6748  168.4940 C.3     1  UNL1        0.0047
     13 C         142.1472  140.5598  164.6127 C.3     1  UNL1        0.0926
     14 C         143.0719  139.9212  165.6062 C.3     1  UNL1        0.0383
     15 C         143.3048  138.5028  165.1775 C.3     1  UNL1        0.0704
     16 N         142.5241  138.2647  163.9190 N.3     1  UNL1       -0.2960
     17 C         141.8086  139.5361  163.5699 C.3     1  UNL1        0.0887
     18 H         141.8473  137.5163  164.0678 H       1  UNL1        0.1233
     19 C         142.3631  143.0443  163.8841 C.3     1  UNL1        0.0756
     20 C         143.3440  144.0300  164.4465 C.3     1  UNL1        0.0198
     21 C         143.8093  144.9117  163.3258 C.3     1  UNL1        0.0018
     22 C         143.1161  144.4710  162.0707 C.3     1  UNL1        0.0018
     23 C         142.2223  143.3168  162.4157 C.3     1  UNL1        0.0198
@<TRIPOS>BOND
     1    10    11    1
     2    11    12    1
     3    11     4    1
     4     4     5   ar
     5     5     6   ar
     6     6     7   ar
     7     7     8   ar
     8     8     9   ar
     9     9     1    1
    10     1     2    2
    11     1     3   am
    12     3    19    1
    13    19    20    1
    14    20    21    1
    15    21    22    1
    16    22    23    1
    17    13     3    1
    18    13    14    1
    19    14    15    1
    20    15    16    1
    21    16    17    1
    22     9     4   ar
    23    23    19    1
    24    17    13    1
    25    16    18    1
