@<TRIPOS>MOLECULE
*****
 38 41 0 0 0
SMALL
GASTEIGER

@<TRIPOS>ATOM
      1 C         141.9191  139.6917  159.3958 C.ar    1  UNL1        0.0730
      2 C         142.4162  140.9363  160.0698 C.ar    1  UNL1        0.0322
      3 C         143.6882  141.5828  159.6070 C.ar    1  UNL1        0.0653
      4 C         144.4630  140.9848  158.4702 C.ar    1  UNL1        0.1133
      5 N         143.9659  139.7404  157.7963 N.ar    1  UNL1       -0.2367
      6 C         142.6939  139.0938  158.2591 C.ar    1  UNL1        0.1476
      7 C         142.1968  137.8493  157.5851 C.2     1  UNL1        0.2617
      8 N         143.1690  136.7948  157.1461 N.am    1  UNL1       -0.3240
      9 O         140.7276  137.6595  157.3502 O.2     1  UNL1       -0.2687
     10 H         144.1333  136.9194  157.3003 H       1  UNL1        0.1453
     11 H         142.8427  135.9780  156.7038 H       1  UNL1        0.1453
     12 N         140.6472  139.0452  159.8586 N.pl3   1  UNL1       -0.2966
     13 H         140.0605  138.5931  159.2100 H       1  UNL1        0.1537
     14 C         141.1533  137.2166  164.6959 C.3     1  UNL1        0.0312
     15 C         140.5222  138.1732  163.7282 C.ar    1  UNL1       -0.0178
     16 C         140.9002  138.1309  162.2773 C.ar    1  UNL1        0.0301
     17 C         140.2691  139.0876  161.3096 C.ar    1  UNL1        0.1315
     18 N         139.2599  140.0866  161.7928 N.ar    1  UNL1       -0.2349
     19 C         138.8819  140.1289  163.2437 C.ar    1  UNL1        0.0605
     20 C         137.8727  141.1280  163.7270 C.3     1  UNL1        0.0521
     21 C         139.5130  139.1722  164.2114 C.ar    1  UNL1        0.0128
     22 C         139.1349  139.2146  165.6624 C.ar    1  UNL1        0.0405
     23 C         138.0115  138.4549  166.3034 C.ar    1  UNL1        0.1217
     24 N         137.9962  138.7949  167.7643 N.ar    1  UNL1       -0.1676
     25 N         139.1102  139.7648  168.0262 N.ar    1  UNL1       -0.2473
     26 C         139.4591  140.3691  169.3540 C.3     1  UNL1        0.1538
     27 C         139.8139  140.0241  166.7272 C.ar    1  UNL1        0.0967
     28 N         144.1853  142.8272  160.2809 N.pl3   1  UNL1       -0.3316
     29 H         144.3869  143.6293  159.7468 H       1  UNL1        0.1468
     30 C         144.3753  142.8496  161.7686 C.3     1  UNL1        0.0833
     31 C         145.2806  141.8494  162.4243 C.3     1  UNL1        0.0208
     32 C         145.4706  141.8718  163.9121 C.3     1  UNL1        0.0018
     33 C         144.7552  142.8944  164.7442 C.3     1  UNL1        0.0015
     34 C         143.8499  143.8947  164.0885 C.3     1  UNL1        0.0172
     35 C         143.6599  143.8723  162.6008 C.3     1  UNL1        0.0689
     36 N         142.7545  144.8725  161.9452 N.3     1  UNL1       -0.3209
     37 H         142.7438  144.7124  160.9379 H       1  UNL1        0.1189
     38 H         143.0944  145.8151  162.1360 H       1  UNL1        0.1189
@<TRIPOS>BOND
     1    14    15    1
     2    15    16   ar
     3    16    17   ar
     4    17    12    1
     5    12     1    1
     6     1     2   ar
     7     2     3   ar
     8     3    28    1
     9    30    28    1
    10    30    31    1
    11    31    32    1
    12    32    33    1
    13    33    34    1
    14    34    35    1
    15    35    36    1
    16     3     4   ar
    17     4     5   ar
    18     5     6   ar
    19     6     7    1
    20     7     8   am
    21     7     9    2
    22    17    18   ar
    23    18    19   ar
    24    19    20    1
    25    19    21   ar
    26    21    22    1
    27    22    23   ar
    28    23    24   ar
    29    24    25   ar
    30    25    26    1
    31    25    27   ar
    32    21    15   ar
    33    27    22   ar
    34     6     1   ar
    35    35    30    1
    36    12    13    1
    37    28    29    1
    38    36    37    1
    39    36    38    1
    40     8    10    1
    41     8    11    1
@<TRIPOS>MOLECULE
*****
 38 41 0 0 0
SMALL
GASTEIGER

@<TRIPOS>ATOM
      1 C         141.2421  140.5123  168.5770 C.ar    1  UNL1        0.0730
      2 C         140.2481  140.0833  167.5387 C.ar    1  UNL1        0.0322
      3 C         138.8674  139.6655  167.9497 C.ar    1  UNL1        0.0653
      4 C         138.4806  139.6767  169.3989 C.ar    1  UNL1        0.1133
      5 N         139.4745  140.1058  170.4372 N.ar    1  UNL1       -0.2367
      6 C         140.8553  140.5236  170.0262 C.ar    1  UNL1        0.1476
      7 C         141.8493  140.9526  171.0645 C.2     1  UNL1        0.2617
      8 N         143.0258  140.0784  171.3829 N.am    1  UNL1       -0.3240
      9 O         141.6666  142.2559  171.7843 O.2     1  UNL1       -0.2687
     10 H         143.1457  139.2230  170.9105 H       1  UNL1        0.1453
     11 H         143.6782  140.3600  172.0644 H       1  UNL1        0.1453
     12 N         142.6229  140.9301  168.1660 N.pl3   1  UNL1       -0.2966
     13 H         143.3410  140.9844  168.8373 H       1  UNL1        0.1537
     14 C         142.9677  139.4801  163.1882 C.3     1  UNL1        0.0312
     15 C         143.0819  140.5401  164.2433 C.ar    1  UNL1       -0.0178
     16 C         142.7953  140.2051  165.6771 C.ar    1  UNL1        0.0301
     17 C         142.9095  141.2651  166.7322 C.ar    1  UNL1        0.1315
     18 N         143.3104  142.6601  166.3537 N.ar    1  UNL1       -0.2349
     19 C         143.5970  142.9951  164.9200 C.ar    1  UNL1        0.0605
     20 C         143.9978  144.3901  164.5413 C.3     1  UNL1        0.0521
     21 C         143.4827  141.9351  163.8648 C.ar    1  UNL1        0.0128
     22 C         143.7694  142.2701  162.4310 C.ar    1  UNL1        0.0405
     23 C         145.0999  142.1561  161.7479 C.ar    1  UNL1        0.1217
     24 N         144.9286  142.5935  160.3234 N.ar    1  UNL1       -0.1676
     25 N         143.4921  142.9779  160.1260 N.ar    1  UNL1       -0.2473
     26 C         142.8797  143.4749  158.8502 C.3     1  UNL1        0.1538
     27 C         142.7757  142.7781  161.4286 C.ar    1  UNL1        0.0967
     28 N         137.8734  139.2364  166.9115 N.pl3   1  UNL1       -0.3316
     29 H         136.9260  139.1230  167.1541 H       1  UNL1        0.1468
     30 C         138.3229  138.9803  165.5035 C.3     1  UNL1        0.0833
     31 C         138.8957  137.6452  165.1302 C.3     1  UNL1        0.0208
     32 C         139.3451  137.3890  163.7222 C.3     1  UNL1        0.0018
     33 C         139.2218  138.4680  162.6876 C.3     1  UNL1        0.0015
     34 C         138.6490  139.8031  163.0608 C.3     1  UNL1        0.0172
     35 C         138.1995  140.0593  164.4688 C.3     1  UNL1        0.0689
     36 N         137.6267  141.3944  164.8420 N.3     1  UNL1       -0.3209
     37 H         137.3762  141.3925  165.8308 H       1  UNL1        0.1189
     38 H         136.7946  141.5763  164.2808 H       1  UNL1        0.1189
@<TRIPOS>BOND
     1    14    15    1
     2    15    16   ar
     3    16    17   ar
     4    17    12    1
     5    12     1    1
     6     1     2   ar
     7     2     3   ar
     8     3    28    1
     9    30    28    1
    10    30    31    1
    11    31    32    1
    12    32    33    1
    13    33    34    1
    14    34    35    1
    15    35    36    1
    16     3     4   ar
    17     4     5   ar
    18     5     6   ar
    19     6     7    1
    20     7     8   am
    21     7     9    2
    22    17    18   ar
    23    18    19   ar
    24    19    20    1
    25    19    21   ar
    26    21    22    1
    27    22    23   ar
    28    23    24   ar
    29    24    25   ar
    30    25    26    1
    31    25    27   ar
    32    21    15   ar
    33    27    22   ar
    34     6     1   ar
    35    35    30    1
    36    12    13    1
    37    28    29    1
    38    36    37    1
    39    36    38    1
    40     8    10    1
    41     8    11    1
@<TRIPOS>MOLECULE
*****
 38 41 0 0 0
SMALL
GASTEIGER

@<TRIPOS>ATOM
      1 C         141.2094  141.7460  167.8738 C.ar    1  UNL1        0.0730
      2 C         141.6898  140.7380  166.8721 C.ar    1  UNL1        0.0322
      3 C         142.4384  139.5221  167.3315 C.ar    1  UNL1        0.0653
      4 C         142.7067  139.3142  168.7927 C.ar    1  UNL1        0.1133
      5 N         142.2264  140.3221  169.7943 N.ar    1  UNL1       -0.2367
      6 C         141.4778  141.5381  169.3348 C.ar    1  UNL1        0.1476
      7 C         140.9974  142.5461  170.3365 C.2     1  UNL1        0.2617
      8 N         140.2982  142.0904  171.5829 N.am    1  UNL1       -0.3240
      9 O         141.2164  144.0097  170.0918 O.2     1  UNL1       -0.2687
     10 H         140.1545  141.1298  171.7435 H       1  UNL1        0.1453
     11 H         139.9830  142.7520  172.2403 H       1  UNL1        0.1453
     12 N         140.4608  142.9619  167.4143 N.pl3   1  UNL1       -0.2966
     13 H         140.0257  143.5502  168.0730 H       1  UNL1        0.1537
     14 C         137.6203  144.1196  163.2201 C.3     1  UNL1        0.0312
     15 C         138.9547  143.8603  163.8542 C.ar    1  UNL1       -0.0178
     16 C         139.0405  143.5408  165.3172 C.ar    1  UNL1        0.0301
     17 C         140.3750  143.2815  165.9512 C.ar    1  UNL1        0.1315
     18 N         141.6236  143.3417  165.1223 N.ar    1  UNL1       -0.2349
     19 C         141.5378  143.6613  163.6592 C.ar    1  UNL1        0.0605
     20 C         142.7865  143.7215  162.8302 C.3     1  UNL1        0.0521
     21 C         140.2033  143.9206  163.0252 C.ar    1  UNL1        0.0128
     22 C         140.1175  144.2401  161.5621 C.ar    1  UNL1        0.0405
     23 C         140.1805  145.6097  160.9536 C.ar    1  UNL1        0.1217
     24 N         140.0556  145.4622  159.4661 N.ar    1  UNL1       -0.1676
     25 N         139.9154  144.0014  159.1553 N.ar    1  UNL1       -0.2473
     26 C         139.7637  143.4013  157.7889 C.3     1  UNL1        0.1538
     27 C         139.9537  143.2462  160.4507 C.ar    1  UNL1        0.0967
     28 N         142.9187  138.5141  166.3299 N.pl3   1  UNL1       -0.3316
     29 H         142.9729  137.5625  166.5764 H       1  UNL1        0.1468
     30 C         143.3165  138.9561  164.9529 C.3     1  UNL1        0.0833
     31 C         144.4669  139.9015  164.7716 C.3     1  UNL1        0.0208
     32 C         144.8647  140.3434  163.3944 C.3     1  UNL1        0.0018
     33 C         144.1121  139.8399  162.1986 C.3     1  UNL1        0.0015
     34 C         142.9617  138.8945  162.3798 C.3     1  UNL1        0.0172
     35 C         142.5639  138.4526  163.7569 C.3     1  UNL1        0.0689
     36 N         141.4135  137.5072  163.9382 N.3     1  UNL1       -0.3209
     37 H         141.2841  137.3157  164.9316 H       1  UNL1        0.1189
     38 H         141.6093  136.6352  163.4465 H       1  UNL1        0.1189
@<TRIPOS>BOND
     1    14    15    1
     2    15    16   ar
     3    16    17   ar
     4    17    12    1
     5    12     1    1
     6     1     2   ar
     7     2     3   ar
     8     3    28    1
     9    30    28    1
    10    30    31    1
    11    31    32    1
    12    32    33    1
    13    33    34    1
    14    34    35    1
    15    35    36    1
    16     3     4   ar
    17     4     5   ar
    18     5     6   ar
    19     6     7    1
    20     7     8   am
    21     7     9    2
    22    17    18   ar
    23    18    19   ar
    24    19    20    1
    25    19    21   ar
    26    21    22    1
    27    22    23   ar
    28    23    24   ar
    29    24    25   ar
    30    25    26    1
    31    25    27   ar
    32    21    15   ar
    33    27    22   ar
    34     6     1   ar
    35    35    30    1
    36    12    13    1
    37    28    29    1
    38    36    37    1
    39    36    38    1
    40     8    10    1
    41     8    11    1
@<TRIPOS>MOLECULE
*****
 38 41 0 0 0
SMALL
GASTEIGER

@<TRIPOS>ATOM
      1 C         141.0825  141.7930  167.6232 C.ar    1  UNL1        0.0730
      2 C         141.7751  140.7965  166.7415 C.ar    1  UNL1        0.0322
      3 C         142.4989  139.6321  167.3501 C.ar    1  UNL1        0.0653
      4 C         142.5300  139.4642  168.8404 C.ar    1  UNL1        0.1133
      5 N         141.8374  140.4606  169.7220 N.ar    1  UNL1       -0.2367
      6 C         141.1136  141.6250  169.1135 C.ar    1  UNL1        0.1476
      7 C         140.4210  142.6214  169.9952 C.2     1  UNL1        0.2617
      8 N         139.2314  142.2043  170.8082 N.am    1  UNL1       -0.3240
      9 O         140.9179  144.0351  170.0639 O.2     1  UNL1       -0.2687
     10 H         138.9053  141.2765  170.7630 H       1  UNL1        0.1453
     11 H         138.7768  142.8583  171.3868 H       1  UNL1        0.1453
     12 N         140.3587  142.9574  167.0147 N.pl3   1  UNL1       -0.2966
     13 H         139.8544  143.5781  167.5888 H       1  UNL1        0.1537
     14 C         137.9991  142.9062  162.3855 C.3     1  UNL1        0.0312
     15 C         139.2236  143.1504  163.2168 C.ar    1  UNL1       -0.0178
     16 C         139.1789  142.9318  164.7000 C.ar    1  UNL1        0.0301
     17 C         140.4034  143.1760  165.5313 C.ar    1  UNL1        0.1315
     18 N         141.6725  143.6389  164.8794 N.ar    1  UNL1       -0.2349
     19 C         141.7171  143.8575  163.3961 C.ar    1  UNL1        0.0605
     20 C         142.9862  144.3205  162.7440 C.3     1  UNL1        0.0521
     21 C         140.4926  143.6133  162.5648 C.ar    1  UNL1        0.0128
     22 C         140.5373  143.8320  161.0814 C.ar    1  UNL1        0.0405
     23 C         140.8638  142.7960  160.0469 C.ar    1  UNL1        0.1217
     24 N         140.7916  143.4488  158.6984 N.ar    1  UNL1       -0.1676
     25 N         140.4205  144.8883  158.8994 N.ar    1  UNL1       -0.2473
     26 C         140.2385  145.9112  157.8175 C.3     1  UNL1        0.1538
     27 C         140.2633  145.1250  160.3722 C.ar    1  UNL1        0.0967
     28 N         143.1915  138.6357  166.4684 N.pl3   1  UNL1       -0.3316
     29 H         143.9902  138.1613  166.7945 H       1  UNL1        0.1468
     30 C         142.6672  138.3619  165.0900 C.3     1  UNL1        0.0833
     31 C         141.4161  137.5542  164.9101 C.3     1  UNL1        0.0208
     32 C         140.8918  137.2805  163.5316 C.3     1  UNL1        0.0018
     33 C         141.6186  137.8145  162.3330 C.3     1  UNL1        0.0015
     34 C         142.8697  138.6222  162.5129 C.3     1  UNL1        0.0172
     35 C         143.3940  138.8959  163.8913 C.3     1  UNL1        0.0689
     36 N         144.6451  139.7036  164.0712 N.3     1  UNL1       -0.3209
     37 H         144.8538  139.7904  165.0659 H       1  UNL1        0.1189
     38 H         144.5114  140.6317  163.6697 H       1  UNL1        0.1189
@<TRIPOS>BOND
     1    14    15    1
     2    15    16   ar
     3    16    17   ar
     4    17    12    1
     5    12     1    1
     6     1     2   ar
     7     2     3   ar
     8     3    28    1
     9    30    28    1
    10    30    31    1
    11    31    32    1
    12    32    33    1
    13    33    34    1
    14    34    35    1
    15    35    36    1
    16     3     4   ar
    17     4     5   ar
    18     5     6   ar
    19     6     7    1
    20     7     8   am
    21     7     9    2
    22    17    18   ar
    23    18    19   ar
    24    19    20    1
    25    19    21   ar
    26    21    22    1
    27    22    23   ar
    28    23    24   ar
    29    24    25   ar
    30    25    26    1
    31    25    27   ar
    32    21    15   ar
    33    27    22   ar
    34     6     1   ar
    35    35    30    1
    36    12    13    1
    37    28    29    1
    38    36    37    1
    39    36    38    1
    40     8    10    1
    41     8    11    1
@<TRIPOS>MOLECULE
*****
 38 41 0 0 0
SMALL
GASTEIGER

@<TRIPOS>ATOM
      1 C         142.8158  142.2588  160.2886 C.ar    1  UNL1        0.0730
      2 C         141.6038  142.9367  160.8556 C.ar    1  UNL1        0.0322
      3 C         140.8646  143.9563  160.0408 C.ar    1  UNL1        0.0653
      4 C         141.3375  144.2980  158.6588 C.ar    1  UNL1        0.1133
      5 N         142.5494  143.6201  158.0918 N.ar    1  UNL1       -0.2367
      6 C         143.2886  142.6005  158.9067 C.ar    1  UNL1        0.1476
      7 C         144.5007  141.9227  158.3396 C.2     1  UNL1        0.2617
      8 N         145.6670  142.7409  157.8705 N.am    1  UNL1       -0.3240
      9 O         144.5463  140.4265  158.2417 O.2     1  UNL1       -0.2687
     10 H         145.6370  143.7228  157.9347 H       1  UNL1        0.1453
     11 H         146.4625  142.2960  157.4983 H       1  UNL1        0.1453
     12 N         143.5550  141.2392  161.1034 N.pl3   1  UNL1       -0.2966
     13 H         144.3056  140.7414  160.7059 H       1  UNL1        0.1537
     14 C         143.5830  142.6113  166.1151 C.3     1  UNL1        0.0312
     15 C         143.1646  141.6640  165.0299 C.ar    1  UNL1       -0.0178
     16 C         143.5690  141.9252  163.6093 C.ar    1  UNL1        0.0301
     17 C         143.1505  140.9780  162.5241 C.ar    1  UNL1        0.1315
     18 N         142.3276  139.7696  162.8595 N.ar    1  UNL1       -0.2349
     19 C         141.9232  139.5084  164.2801 C.ar    1  UNL1        0.0605
     20 C         141.1003  138.2999  164.6156 C.3     1  UNL1        0.0521
     21 C         142.3417  140.4556  165.3653 C.ar    1  UNL1        0.0128
     22 C         141.9372  140.1944  166.7860 C.ar    1  UNL1        0.0405
     23 C         142.7364  139.4382  167.8055 C.ar    1  UNL1        0.1217
     24 N         141.9556  139.4200  169.0861 N.ar    1  UNL1       -0.1676
     25 N         140.6738  140.1650  168.8581 N.ar    1  UNL1       -0.2473
     26 C         139.5931  140.3916  169.8734 C.3     1  UNL1        0.1538
     27 C         140.6624  140.6436  167.4366 C.ar    1  UNL1        0.0967
     28 N         139.6526  144.6341  160.6078 N.pl3   1  UNL1       -0.3316
     29 H         139.1507  145.2821  160.0624 H       1  UNL1        0.1468
     30 C         139.2054  144.3247  162.0057 C.3     1  UNL1        0.0833
     31 C         138.1485  143.2870  162.2427 C.3     1  UNL1        0.0208
     32 C         137.7013  142.9777  163.6407 C.3     1  UNL1        0.0018
     33 C         138.3110  143.7059  164.8017 C.3     1  UNL1        0.0015
     34 C         139.3679  144.7436  164.5647 C.3     1  UNL1        0.0172
     35 C         139.8151  145.0530  163.1667 C.3     1  UNL1        0.0689
     36 N         140.8721  146.0907  162.9298 N.3     1  UNL1       -0.3209
     37 H         141.0515  146.1708  161.9289 H       1  UNL1        0.1189
     38 H         141.7304  145.8172  163.4082 H       1  UNL1        0.1189
@<TRIPOS>BOND
     1    14    15    1
     2    15    16   ar
     3    16    17   ar
     4    17    12    1
     5    12     1    1
     6     1     2   ar
     7     2     3   ar
     8     3    28    1
     9    30    28    1
    10    30    31    1
    11    31    32    1
    12    32    33    1
    13    33    34    1
    14    34    35    1
    15    35    36    1
    16     3     4   ar
    17     4     5   ar
    18     5     6   ar
    19     6     7    1
    20     7     8   am
    21     7     9    2
    22    17    18   ar
    23    18    19   ar
    24    19    20    1
    25    19    21   ar
    26    21    22    1
    27    22    23   ar
    28    23    24   ar
    29    24    25   ar
    30    25    26    1
    31    25    27   ar
    32    21    15   ar
    33    27    22   ar
    34     6     1   ar
    35    35    30    1
    36    12    13    1
    37    28    29    1
    38    36    37    1
    39    36    38    1
    40     8    10    1
    41     8    11    1
@<TRIPOS>MOLECULE
*****
 38 41 0 0 0
SMALL
GASTEIGER

@<TRIPOS>ATOM
      1 C         142.6317  142.0684  160.1488 C.ar    1  UNL1        0.0730
      2 C         141.4197  142.7504  160.7111 C.ar    1  UNL1        0.0322
      3 C         140.8595  143.9647  160.0316 C.ar    1  UNL1        0.0653
      4 C         141.5113  144.4971  158.7899 C.ar    1  UNL1        0.1133
      5 N         142.7232  143.8151  158.2277 N.ar    1  UNL1       -0.2367
      6 C         143.2834  142.6008  158.9071 C.ar    1  UNL1        0.1476
      7 C         144.4954  141.9188  158.3448 C.2     1  UNL1        0.2617
      8 N         145.6726  142.7322  157.8948 N.am    1  UNL1       -0.3240
      9 O         144.5301  140.4234  158.2325 O.2     1  UNL1       -0.2687
     10 H         145.6498  143.7137  157.9685 H       1  UNL1        0.1453
     11 H         146.4680  142.2847  157.5258 H       1  UNL1        0.1453
     12 N         143.1918  140.8541  160.8282 N.pl3   1  UNL1       -0.2966
     13 H         143.7348  140.2109  160.3176 H       1  UNL1        0.1537
     14 C         141.1999  137.9155  164.6225 C.3     1  UNL1        0.0312
     15 C         141.9287  139.1505  164.1827 C.ar    1  UNL1       -0.0178
     16 C         142.1959  139.3848  162.7254 C.ar    1  UNL1        0.0301
     17 C         142.9247  140.6199  162.2856 C.ar    1  UNL1        0.1315
     18 N         143.3865  141.6206  163.3030 N.ar    1  UNL1       -0.2349
     19 C         143.1193  141.3863  164.7603 C.ar    1  UNL1        0.0605
     20 C         143.5811  142.3871  165.7778 C.3     1  UNL1        0.0521
     21 C         142.3905  140.1513  165.2001 C.ar    1  UNL1        0.0128
     22 C         142.1233  139.9171  166.6575 C.ar    1  UNL1        0.0405
     23 C         142.9986  139.1475  167.6017 C.ar    1  UNL1        0.1217
     24 N         142.3503  139.1661  168.9542 N.ar    1  UNL1       -0.1676
     25 N         141.0742  139.9472  168.8459 N.ar    1  UNL1       -0.2473
     26 C         140.1081  140.2168  169.9612 C.3     1  UNL1        0.1538
     27 C         140.9340  140.4113  167.4264 C.ar    1  UNL1        0.0967
     28 N         139.6476  144.6467  160.5939 N.pl3   1  UNL1       -0.3316
     29 H         139.1473  145.2929  160.0450 H       1  UNL1        0.1468
     30 C         139.1979  144.3439  161.9924 C.3     1  UNL1        0.0833
     31 C         138.1230  143.3252  162.2307 C.3     1  UNL1        0.0208
     32 C         137.6733  143.0225  163.6294 C.3     1  UNL1        0.0018
     33 C         138.2985  143.7385  164.7897 C.3     1  UNL1        0.0015
     34 C         139.3734  144.7572  164.5515 C.3     1  UNL1        0.0172
     35 C         139.8231  145.0600  163.1529 C.3     1  UNL1        0.0689
     36 N         140.8980  146.0787  162.9146 N.3     1  UNL1       -0.3209
     37 H         141.0767  146.1566  161.9134 H       1  UNL1        0.1189
     38 H         141.7523  145.7893  163.3910 H       1  UNL1        0.1189
@<TRIPOS>BOND
     1    14    15    1
     2    15    16   ar
     3    16    17   ar
     4    17    12    1
     5    12     1    1
     6     1     2   ar
     7     2     3   ar
     8     3    28    1
     9    30    28    1
    10    30    31    1
    11    31    32    1
    12    32    33    1
    13    33    34    1
    14    34    35    1
    15    35    36    1
    16     3     4   ar
    17     4     5   ar
    18     5     6   ar
    19     6     7    1
    20     7     8   am
    21     7     9    2
    22    17    18   ar
    23    18    19   ar
    24    19    20    1
    25    19    21   ar
    26    21    22    1
    27    22    23   ar
    28    23    24   ar
    29    24    25   ar
    30    25    26    1
    31    25    27   ar
    32    21    15   ar
    33    27    22   ar
    34     6     1   ar
    35    35    30    1
    36    12    13    1
    37    28    29    1
    38    36    37    1
    39    36    38    1
    40     8    10    1
    41     8    11    1
@<TRIPOS>MOLECULE
*****
 38 41 0 0 0
SMALL
GASTEIGER

@<TRIPOS>ATOM
      1 C         139.2962  141.2990  165.0220 C.ar    1  UNL1        0.0730
      2 C         139.8872  141.1357  166.3910 C.ar    1  UNL1        0.0322
      3 C         139.4335  140.0117  167.2746 C.ar    1  UNL1        0.0653
      4 C         138.3888  139.0509  166.7891 C.ar    1  UNL1        0.1133
      5 N         137.7978  139.2142  165.4202 N.ar    1  UNL1       -0.2367
      6 C         138.2515  140.3382  164.5366 C.ar    1  UNL1        0.1476
      7 C         137.6605  140.5015  163.1676 C.2     1  UNL1        0.2617
      8 N         137.6769  139.3539  162.2019 N.am    1  UNL1       -0.3240
      9 O         137.0532  141.8124  162.7644 O.2     1  UNL1       -0.2687
     10 H         138.0756  138.4935  162.4665 H       1  UNL1        0.1453
     11 H         137.2890  139.4611  161.3034 H       1  UNL1        0.1453
     12 N         139.7499  142.4230  164.1384 N.pl3   1  UNL1       -0.2966
     13 H         139.4485  143.3428  164.3181 H       1  UNL1        0.1537
     14 C         144.2791  140.6579  162.3022 C.3     1  UNL1        0.0312
     15 C         142.9275  141.2630  162.0629 C.ar    1  UNL1       -0.0178
     16 C         142.0145  141.5405  163.2202 C.ar    1  UNL1        0.0301
     17 C         140.6630  142.1455  162.9810 C.ar    1  UNL1        0.1315
     18 N         140.2244  142.4730  161.5845 N.ar    1  UNL1       -0.2349
     19 C         141.1374  142.1955  160.4272 C.ar    1  UNL1        0.0605
     20 C         140.6989  142.5231  159.0305 C.3     1  UNL1        0.0521
     21 C         142.4890  141.5905  160.6664 C.ar    1  UNL1        0.0128
     22 C         143.4020  141.3130  159.5090 C.ar    1  UNL1        0.0405
     23 C         143.5090  140.0170  158.7614 C.ar    1  UNL1        0.1217
     24 N         144.5414  140.1859  157.6864 N.ar    1  UNL1       -0.1676
     25 N         145.0726  141.5862  157.7697 N.ar    1  UNL1       -0.2473
     26 C         146.1234  142.1849  156.8823 C.3     1  UNL1        0.1538
     27 C         144.3684  142.2828  158.8961 C.ar    1  UNL1        0.0967
     28 N         140.0244  139.8484  168.6435 N.pl3   1  UNL1       -0.3316
     29 H         139.7812  139.0700  169.1950 H       1  UNL1        0.1468
     30 C         140.9860  140.8710  169.1721 C.3     1  UNL1        0.0833
     31 C         140.4885  142.2234  169.5889 C.3     1  UNL1        0.0208
     32 C         141.4502  143.2461  170.1176 C.3     1  UNL1        0.0018
     33 C         142.9092  142.9164  170.2294 C.3     1  UNL1        0.0015
     34 C         143.4067  141.5641  169.8127 C.3     1  UNL1        0.0172
     35 C         142.4451  140.5414  169.2840 C.3     1  UNL1        0.0689
     36 N         142.9425  139.1891  168.8672 N.3     1  UNL1       -0.3209
     37 H         142.1593  138.6260  168.5357 H       1  UNL1        0.1189
     38 H         143.3799  138.7271  169.6645 H       1  UNL1        0.1189
@<TRIPOS>BOND
     1    14    15    1
     2    15    16   ar
     3    16    17   ar
     4    17    12    1
     5    12     1    1
     6     1     2   ar
     7     2     3   ar
     8     3    28    1
     9    30    28    1
    10    30    31    1
    11    31    32    1
    12    32    33    1
    13    33    34    1
    14    34    35    1
    15    35    36    1
    16     3     4   ar
    17     4     5   ar
    18     5     6   ar
    19     6     7    1
    20     7     8   am
    21     7     9    2
    22    17    18   ar
    23    18    19   ar
    24    19    20    1
    25    19    21   ar
    26    21    22    1
    27    22    23   ar
    28    23    24   ar
    29    24    25   ar
    30    25    26    1
    31    25    27   ar
    32    21    15   ar
    33    27    22   ar
    34     6     1   ar
    35    35    30    1
    36    12    13    1
    37    28    29    1
    38    36    37    1
    39    36    38    1
    40     8    10    1
    41     8    11    1
@<TRIPOS>MOLECULE
*****
 38 41 0 0 0
SMALL
GASTEIGER

@<TRIPOS>ATOM
      1 C         138.5680  142.1430  159.0247 C.ar    1  UNL1        0.0730
      2 C         139.5553  142.9683  159.7956 C.ar    1  UNL1        0.0322
      3 C         140.2085  144.1539  159.1492 C.ar    1  UNL1        0.0653
      4 C         139.8745  144.5141  157.7319 C.ar    1  UNL1        0.1133
      5 N         138.8873  143.6888  156.9610 N.ar    1  UNL1       -0.2367
      6 C         138.2341  142.5033  157.6074 C.ar    1  UNL1        0.1476
      7 C         137.2468  141.6780  156.8364 C.2     1  UNL1        0.2617
      8 N         136.1147  142.3449  156.1129 N.am    1  UNL1       -0.3240
      9 O         137.3918  140.1857  156.7891 O.2     1  UNL1       -0.2687
     10 H         136.0196  143.3243  156.1440 H       1  UNL1        0.1453
     11 H         135.4668  141.8032  155.6069 H       1  UNL1        0.1453
     12 N         137.9148  140.9575  159.6710 N.pl3   1  UNL1       -0.2966
     13 H         137.3498  140.3543  159.1361 H       1  UNL1        0.1537
     14 C         137.7281  142.5641  164.6091 C.3     1  UNL1        0.0312
     15 C         138.0290  141.4944  163.6015 C.ar    1  UNL1       -0.0178
     16 C         137.8214  141.7608  162.1401 C.ar    1  UNL1        0.0301
     17 C         138.1224  140.6911  161.1326 C.ar    1  UNL1        0.1315
     18 N         138.6308  139.3549  161.5865 N.ar    1  UNL1       -0.2349
     19 C         138.8384  139.0885  163.0480 C.ar    1  UNL1        0.0605
     20 C         139.3469  137.7523  163.5020 C.3     1  UNL1        0.0521
     21 C         138.5375  140.1582  164.0555 C.ar    1  UNL1        0.0128
     22 C         138.7450  139.8918  165.5170 C.ar    1  UNL1        0.0405
     23 C         137.8412  139.0875  166.4037 C.ar    1  UNL1        0.1217
     24 N         138.4305  139.0815  167.7831 N.ar    1  UNL1       -0.1676
     25 N         139.6986  139.8820  167.7489 N.ar    1  UNL1       -0.2473
     26 C         140.6119  140.1370  168.9112 C.3     1  UNL1        0.1538
     27 C         139.8930  140.3828  166.3484 C.ar    1  UNL1        0.0967
     28 N         141.1957  144.9791  159.9201 N.pl3   1  UNL1       -0.3316
     29 H         141.6825  145.7089  159.4733 H       1  UNL1        0.1468
     30 C         141.4412  144.6925  161.3718 C.3     1  UNL1        0.0833
     31 C         140.4768  145.1890  162.4079 C.3     1  UNL1        0.0208
     32 C         140.7224  144.9024  163.8597 C.3     1  UNL1        0.0018
     33 C         141.9323  144.1192  164.2753 C.3     1  UNL1        0.0015
     34 C         142.8967  143.6227  163.2393 C.3     1  UNL1        0.0172
     35 C         142.6512  143.9093  161.7876 C.3     1  UNL1        0.0689
     36 N         143.6156  143.4128  160.7515 N.3     1  UNL1       -0.3209
     37 H         143.2954  143.6963  159.8255 H       1  UNL1        0.1189
     38 H         143.6685  142.3952  160.7962 H       1  UNL1        0.1189
@<TRIPOS>BOND
     1    14    15    1
     2    15    16   ar
     3    16    17   ar
     4    17    12    1
     5    12     1    1
     6     1     2   ar
     7     2     3   ar
     8     3    28    1
     9    30    28    1
    10    30    31    1
    11    31    32    1
    12    32    33    1
    13    33    34    1
    14    34    35    1
    15    35    36    1
    16     3     4   ar
    17     4     5   ar
    18     5     6   ar
    19     6     7    1
    20     7     8   am
    21     7     9    2
    22    17    18   ar
    23    18    19   ar
    24    19    20    1
    25    19    21   ar
    26    21    22    1
    27    22    23   ar
    28    23    24   ar
    29    24    25   ar
    30    25    26    1
    31    25    27   ar
    32    21    15   ar
    33    27    22   ar
    34     6     1   ar
    35    35    30    1
    36    12    13    1
    37    28    29    1
    38    36    37    1
    39    36    38    1
    40     8    10    1
    41     8    11    1
@<TRIPOS>MOLECULE
*****
 38 41 0 0 0
SMALL
GASTEIGER

@<TRIPOS>ATOM
      1 C         139.7385  141.7283  160.4587 C.ar    1  UNL1        0.0730
      2 C         141.0688  142.2859  160.8705 C.ar    1  UNL1        0.0322
      3 C         142.1464  142.4885  159.8469 C.ar    1  UNL1        0.0653
      4 C         141.8937  142.1336  158.4115 C.ar    1  UNL1        0.1133
      5 N         140.5635  141.5760  157.9998 N.ar    1  UNL1       -0.2367
      6 C         139.4859  141.3734  159.0234 C.ar    1  UNL1        0.1476
      7 C         138.1556  140.8158  158.6116 C.2     1  UNL1        0.2617
      8 N         137.5448  141.2217  157.3031 N.am    1  UNL1       -0.3240
      9 O         137.4362  139.8523  159.5083 O.2     1  UNL1       -0.2687
     10 H         138.0170  141.8541  156.7146 H       1  UNL1        0.1453
     11 H         136.6717  140.8558  157.0329 H       1  UNL1        0.1453
     12 N         138.6609  141.5256  161.4823 N.pl3   1  UNL1       -0.2966
     13 H         137.7145  141.6055  161.2231 H       1  UNL1        0.1537
     14 C         140.1297  143.0783  166.2185 C.3     1  UNL1        0.0312
     15 C         139.7597  141.9777  165.2689 C.ar    1  UNL1       -0.0178
     16 C         139.3953  142.3020  163.8504 C.ar    1  UNL1        0.0301
     17 C         139.0253  141.2014  162.9008 C.ar    1  UNL1        0.1315
     18 N         139.0198  139.7765  163.3696 N.ar    1  UNL1       -0.2349
     19 C         139.3842  139.4523  164.7880 C.ar    1  UNL1        0.0605
     20 C         139.3787  138.0275  165.2569 C.3     1  UNL1        0.0521
     21 C         139.7542  140.5529  165.7377 C.ar    1  UNL1        0.0128
     22 C         140.1186  140.2287  167.1562 C.ar    1  UNL1        0.0405
     23 C         139.1609  140.0849  168.3017 C.ar    1  UNL1        0.1217
     24 N         139.9551  139.7586  169.5317 N.ar    1  UNL1       -0.1676
     25 N         141.4037  139.7007  169.1463 N.ar    1  UNL1       -0.2473
     26 C         142.5499  139.4043  170.0673 C.3     1  UNL1        0.1538
     27 C         141.5046  139.9912  167.6782 C.ar    1  UNL1        0.0967
     28 N         143.4767  143.0460  160.2586 N.pl3   1  UNL1       -0.3316
     29 H         144.0400  143.5128  159.5998 H       1  UNL1        0.1468
     30 C         143.9485  142.8925  161.6741 C.3     1  UNL1        0.0833
     31 C         144.7576  141.6927  162.0690 C.3     1  UNL1        0.0208
     32 C         145.2295  141.5392  163.4846 C.3     1  UNL1        0.0018
     33 C         144.8923  142.5854  164.5052 C.3     1  UNL1        0.0015
     34 C         144.0833  143.7852  164.1103 C.3     1  UNL1        0.0172
     35 C         143.6114  143.9387  162.6948 C.3     1  UNL1        0.0689
     36 N         142.8023  145.1385  162.2999 N.3     1  UNL1       -0.3209
     37 H         142.5691  145.0801  161.3086 H       1  UNL1        0.1189
     38 H         143.3439  145.9855  162.4724 H       1  UNL1        0.1189
@<TRIPOS>BOND
     1    14    15    1
     2    15    16   ar
     3    16    17   ar
     4    17    12    1
     5    12     1    1
     6     1     2   ar
     7     2     3   ar
     8     3    28    1
     9    30    28    1
    10    30    31    1
    11    31    32    1
    12    32    33    1
    13    33    34    1
    14    34    35    1
    15    35    36    1
    16     3     4   ar
    17     4     5   ar
    18     5     6   ar
    19     6     7    1
    20     7     8   am
    21     7     9    2
    22    17    18   ar
    23    18    19   ar
    24    19    20    1
    25    19    21   ar
    26    21    22    1
    27    22    23   ar
    28    23    24   ar
    29    24    25   ar
    30    25    26    1
    31    25    27   ar
    32    21    15   ar
    33    27    22   ar
    34     6     1   ar
    35    35    30    1
    36    12    13    1
    37    28    29    1
    38    36    37    1
    39    36    38    1
    40     8    10    1
    41     8    11    1
