@<TRIPOS>MOLECULE
*****
 39 43 0 0 0
SMALL
GASTEIGER

@<TRIPOS>ATOM
      1 C         142.7717  141.9956  159.1768 C.ar    1  UNL1        0.1399
      2 C         143.1724  142.4421  157.8020 C.ar    1  UNL1        0.0554
      3 C         142.9017  143.8504  157.3622 C.ar    1  UNL1        0.1047
      4 N         142.2304  144.8122  158.2972 N.ar    1  UNL1       -0.2119
      5 C         141.8296  144.3657  159.6720 C.ar    1  UNL1        0.2218
      6 N         142.1003  142.9574  160.1119 N.ar    1  UNL1       -0.1983
      7 N         143.0424  140.5873  159.6166 N.pl3   1  UNL1       -0.2705
      8 C         143.4215  139.5457  158.6061 C.3     1  UNL1        0.1187
      9 C         143.1990  138.6771  166.4693 C.3     1  UNL1        0.0518
     10 C         142.3100  139.2093  165.3846 C.ar    1  UNL1        0.0578
     11 C         142.7173  139.4873  163.9680 C.ar    1  UNL1        0.0326
     12 C         144.0262  139.3345  163.2516 C.ar    1  UNL1        0.0040
     13 C         144.1346  139.7012  161.8012 C.ar    1  UNL1        0.0150
     14 C         142.9340  140.2206  161.0671 C.ar    1  UNL1        0.0543
     15 C         141.6251  140.3734  161.7835 C.ar    1  UNL1        0.0357
     16 C         141.5167  140.0068  163.2340 C.ar    1  UNL1        0.1033
     17 N         140.3675  140.0498  164.1970 N.ar    1  UNL1       -0.1692
     18 N         140.8577  139.5570  165.5262 N.ar    1  UNL1       -0.2504
     19 C         140.0394  139.4335  166.7772 C.3     1  UNL1        0.1534
     20 C         140.0492  140.5382  167.7919 C.ar    1  UNL1        0.0021
     21 C         139.5194  140.2922  169.1735 C.ar    1  UNL1       -0.0023
     22 C         139.5292  141.3969  170.1882 C.ar    1  UNL1       -0.0003
     23 C         140.0688  142.7475  169.8213 C.ar    1  UNL1       -0.0000
     24 C         140.5986  142.9935  168.4398 C.ar    1  UNL1       -0.0003
     25 C         140.5888  141.8888  167.4250 C.ar    1  UNL1       -0.0023
     26 N         141.1583  145.3275  160.6070 N.pl3   1  UNL1       -0.2825
     27 H         141.1088  146.2836  160.3776 H       1  UNL1        0.1551
     28 C         140.5622  144.8325  161.8914 C.ar    1  UNL1        0.0518
     29 C         141.0928  145.3274  163.2042 C.ar    1  UNL1        0.0148
     30 C         140.4968  144.8324  164.4886 C.ar    1  UNL1        0.0026
     31 C         139.3701  143.8426  164.4602 C.ar    1  UNL1        0.0200
     32 C         138.8395  143.3478  163.1474 C.ar    1  UNL1        0.1229
     33 C         139.4355  143.8427  161.8630 C.ar    1  UNL1        0.0346
     34 S         137.7127  142.3579  163.1190 S.O2    1  UNL1        0.0572
     35 N         136.5860  141.3682  163.0905 N.3     1  UNL1       -0.2035
     36 O         137.6858  142.4317  161.6211 O.2     1  UNL1       -0.1532
     37 O         137.7396  142.2842  164.6169 O.2     1  UNL1       -0.1532
     38 H         136.3134  141.1911  162.1237 H       1  UNL1        0.1442
     39 H         135.7897  141.7446  163.6048 H       1  UNL1        0.1442
@<TRIPOS>BOND
     1     9    10    1
     2    10    11   ar
     3    11    12   ar
     4    12    13   ar
     5    13    14   ar
     6    14     7    1
     7     7     8    1
     8     7     1    1
     9     1     2   ar
    10     2     3   ar
    11     3     4   ar
    12     4     5   ar
    13     5    26    1
    14    26    28    1
    15    28    29   ar
    16    29    30   ar
    17    30    31   ar
    18    31    32   ar
    19    32    34    1
    20    34    35    1
    21    34    36    2
    22    34    37    2
    23    32    33   ar
    24     5     6   ar
    25    14    15   ar
    26    15    16   ar
    27    16    17   ar
    28    17    18   ar
    29    18    19    1
    30    19    20    1
    31    20    21   ar
    32    21    22   ar
    33    22    23   ar
    34    23    24   ar
    35    24    25   ar
    36    18    10   ar
    37    25    20   ar
    38    16    11   ar
    39     6     1   ar
    40    33    28   ar
    41    26    27    1
    42    35    38    1
    43    35    39    1
@<TRIPOS>MOLECULE
*****
 39 43 0 0 0
SMALL
GASTEIGER

@<TRIPOS>ATOM
      1 C         142.8824  143.0971  158.7230 C.ar    1  UNL1        0.1399
      2 C         142.9195  143.8137  157.4058 C.ar    1  UNL1        0.0554
      3 C         142.2845  145.1658  157.2694 C.ar    1  UNL1        0.1047
      4 N         141.6125  145.8014  158.4502 N.ar    1  UNL1       -0.2119
      5 C         141.5754  145.0848  159.7675 C.ar    1  UNL1        0.2218
      6 N         142.2103  143.7327  159.9039 N.ar    1  UNL1       -0.1983
      7 N         143.5174  141.7450  158.8594 N.pl3   1  UNL1       -0.2705
      8 C         144.5321  141.2881  157.8537 C.3     1  UNL1        0.1187
      9 C         141.3110  137.1572  163.8309 C.3     1  UNL1        0.0518
     10 C         142.1928  138.3470  163.5927 C.ar    1  UNL1        0.0578
     11 C         142.3780  139.0596  162.2858 C.ar    1  UNL1        0.0326
     12 C         141.7920  138.8281  160.9246 C.ar    1  UNL1        0.0040
     13 C         142.1718  139.7233  159.7825 C.ar    1  UNL1        0.0150
     14 C         143.1376  140.8499  160.0016 C.ar    1  UNL1        0.0543
     15 C         143.7236  141.0813  161.3629 C.ar    1  UNL1        0.0357
     16 C         143.3438  140.1862  162.5049 C.ar    1  UNL1        0.1033
     17 N         143.7555  140.1698  163.9473 N.ar    1  UNL1       -0.1692
     18 N         143.0441  139.0332  164.6195 N.ar    1  UNL1       -0.2504
     19 C         143.1631  138.6500  166.0649 C.3     1  UNL1        0.1534
     20 C         142.2166  139.2284  167.0746 C.ar    1  UNL1        0.0021
     21 C         140.8968  139.7870  166.6315 C.ar    1  UNL1       -0.0023
     22 C         139.9503  140.3654  167.6412 C.ar    1  UNL1       -0.0003
     23 C         140.3234  140.3851  169.0939 C.ar    1  UNL1       -0.0000
     24 C         141.6431  139.8265  169.5370 C.ar    1  UNL1       -0.0003
     25 C         142.5897  139.2481  168.5273 C.ar    1  UNL1       -0.0023
     26 N         140.9033  145.7203  160.9484 N.pl3   1  UNL1       -0.2825
     27 H         140.6966  146.6828  160.9379 H       1  UNL1        0.1551
     28 C         140.5462  144.8895  162.1451 C.ar    1  UNL1        0.0518
     29 C         141.3676  144.9848  163.3965 C.ar    1  UNL1        0.0148
     30 C         141.0105  144.1539  164.5932 C.ar    1  UNL1        0.0026
     31 C         139.8320  143.2277  164.5385 C.ar    1  UNL1        0.0200
     32 C         139.0106  143.1323  163.2870 C.ar    1  UNL1        0.1229
     33 C         139.3677  143.9632  162.0903 C.ar    1  UNL1        0.0346
     34 S         137.8320  142.2060  163.2323 S.O2    1  UNL1        0.0572
     35 N         136.6535  141.2797  163.1775 N.3     1  UNL1       -0.2035
     36 O         138.0726  141.8154  164.6604 O.2     1  UNL1       -0.1532
     37 O         137.5913  142.5965  161.8042 O.2     1  UNL1       -0.1532
     38 H         136.5406  140.8194  164.0807 H       1  UNL1        0.1442
     39 H         136.8067  140.5768  162.4545 H       1  UNL1        0.1442
@<TRIPOS>BOND
     1     9    10    1
     2    10    11   ar
     3    11    12   ar
     4    12    13   ar
     5    13    14   ar
     6    14     7    1
     7     7     8    1
     8     7     1    1
     9     1     2   ar
    10     2     3   ar
    11     3     4   ar
    12     4     5   ar
    13     5    26    1
    14    26    28    1
    15    28    29   ar
    16    29    30   ar
    17    30    31   ar
    18    31    32   ar
    19    32    34    1
    20    34    35    1
    21    34    36    2
    22    34    37    2
    23    32    33   ar
    24     5     6   ar
    25    14    15   ar
    26    15    16   ar
    27    16    17   ar
    28    17    18   ar
    29    18    19    1
    30    19    20    1
    31    20    21   ar
    32    21    22   ar
    33    22    23   ar
    34    23    24   ar
    35    24    25   ar
    36    18    10   ar
    37    25    20   ar
    38    16    11   ar
    39     6     1   ar
    40    33    28   ar
    41    26    27    1
    42    35    38    1
    43    35    39    1
@<TRIPOS>MOLECULE
*****
 39 43 0 0 0
SMALL
GASTEIGER

@<TRIPOS>ATOM
      1 C         139.3645  142.6976  158.7236 C.ar    1  UNL1        0.1399
      2 C         139.2027  143.3386  157.3771 C.ar    1  UNL1        0.0554
      3 C         139.8115  144.6829  157.1083 C.ar    1  UNL1        0.1047
      4 N         140.5822  145.3861  158.1860 N.ar    1  UNL1       -0.2119
      5 C         140.7441  144.7452  159.5325 C.ar    1  UNL1        0.2218
      6 N         140.1353  143.4009  159.8013 N.ar    1  UNL1       -0.1983
      7 N         138.7557  141.3534  158.9924 N.pl3   1  UNL1       -0.2705
      8 C         137.8037  140.7497  158.0027 C.3     1  UNL1        0.1187
      9 C         140.8275  137.4682  164.5821 C.3     1  UNL1        0.0518
     10 C         139.9171  138.5820  164.1572 C.ar    1  UNL1        0.0578
     11 C         139.7851  139.1314  162.7677 C.ar    1  UNL1        0.0326
     12 C         140.4618  138.7725  161.4780 C.ar    1  UNL1        0.0040
     13 C         140.1186  139.5131  160.2196 C.ar    1  UNL1        0.0150
     14 C         139.0988  140.6127  160.2509 C.ar    1  UNL1        0.0543
     15 C         138.4222  140.9716  161.5405 C.ar    1  UNL1        0.0357
     16 C         138.7653  140.2310  162.7989 C.ar    1  UNL1        0.1033
     17 N         138.2671  140.3611  164.2078 N.ar    1  UNL1       -0.1692
     18 N         138.9789  139.3420  165.0472 N.ar    1  UNL1       -0.2504
     19 C         138.7864  139.1216  166.5184 C.3     1  UNL1        0.1534
     20 C         139.3338  140.1118  167.5031 C.ar    1  UNL1        0.0021
     21 C         139.0690  139.9365  168.9692 C.ar    1  UNL1       -0.0023
     22 C         139.6164  140.9268  169.9539 C.ar    1  UNL1       -0.0003
     23 C         140.4287  142.0924  169.4726 C.ar    1  UNL1       -0.0000
     24 C         140.6935  142.2677  168.0067 C.ar    1  UNL1       -0.0003
     25 C         140.1461  141.2774  167.0219 C.ar    1  UNL1       -0.0023
     26 N         141.5148  145.4485  160.6101 N.pl3   1  UNL1       -0.2825
     27 H         141.7724  146.3917  160.4955 H       1  UNL1        0.1551
     28 C         141.8931  144.7146  161.8625 C.ar    1  UNL1        0.0518
     29 C         140.9608  144.7062  163.0374 C.ar    1  UNL1        0.0148
     30 C         141.3391  143.9723  164.2898 C.ar    1  UNL1        0.0026
     31 C         142.6497  143.2469  164.3671 C.ar    1  UNL1        0.0200
     32 C         143.5820  143.2554  163.1922 C.ar    1  UNL1        0.1229
     33 C         143.2037  143.9892  161.9398 C.ar    1  UNL1        0.0346
     34 S         144.8927  142.5299  163.2695 S.O2    1  UNL1        0.0572
     35 N         146.2033  141.8045  163.3467 N.3     1  UNL1       -0.2035
     36 O         145.0044  142.5724  161.7743 O.2     1  UNL1       -0.1532
     37 O         144.7810  142.4875  164.7647 O.2     1  UNL1       -0.1532
     38 H         146.5720  141.6674  162.4056 H       1  UNL1        0.1442
     39 H         146.0644  140.8979  163.7930 H       1  UNL1        0.1442
@<TRIPOS>BOND
     1     9    10    1
     2    10    11   ar
     3    11    12   ar
     4    12    13   ar
     5    13    14   ar
     6    14     7    1
     7     7     8    1
     8     7     1    1
     9     1     2   ar
    10     2     3   ar
    11     3     4   ar
    12     4     5   ar
    13     5    26    1
    14    26    28    1
    15    28    29   ar
    16    29    30   ar
    17    30    31   ar
    18    31    32   ar
    19    32    34    1
    20    34    35    1
    21    34    36    2
    22    34    37    2
    23    32    33   ar
    24     5     6   ar
    25    14    15   ar
    26    15    16   ar
    27    16    17   ar
    28    17    18   ar
    29    18    19    1
    30    19    20    1
    31    20    21   ar
    32    21    22   ar
    33    22    23   ar
    34    23    24   ar
    35    24    25   ar
    36    18    10   ar
    37    25    20   ar
    38    16    11   ar
    39     6     1   ar
    40    33    28   ar
    41    26    27    1
    42    35    38    1
    43    35    39    1
@<TRIPOS>MOLECULE
*****
 39 43 0 0 0
SMALL
GASTEIGER

@<TRIPOS>ATOM
      1 C         141.9736  144.2401  158.9847 C.ar    1  UNL1        0.1399
      2 C         141.5649  144.9242  157.7140 C.ar    1  UNL1        0.0554
      3 C         140.4483  145.9257  157.7269 C.ar    1  UNL1        0.1047
      4 N         139.7403  146.2430  159.0106 N.ar    1  UNL1       -0.2119
      5 C         140.1489  145.5588  160.2815 C.ar    1  UNL1        0.2218
      6 N         141.2656  144.5574  160.2686 N.ar    1  UNL1       -0.1983
      7 N         143.0903  143.2387  158.9718 N.pl3   1  UNL1       -0.2705
      8 C         143.9760  143.1185  157.7672 C.3     1  UNL1        0.1187
      9 C         144.8347  139.3005  164.6357 C.3     1  UNL1        0.0518
     10 C         143.7142  139.6326  163.6953 C.ar    1  UNL1        0.0578
     11 C         143.7832  140.5949  162.5468 C.ar    1  UNL1        0.0326
     12 C         144.8957  141.4533  162.0219 C.ar    1  UNL1        0.0040
     13 C         144.6647  142.3345  160.8303 C.ar    1  UNL1        0.0150
     14 C         143.3212  142.3574  160.1635 C.ar    1  UNL1        0.0543
     15 C         142.2087  141.4990  160.6884 C.ar    1  UNL1        0.0357
     16 C         142.4397  140.6178  161.8800 C.ar    1  UNL1        0.1033
     17 N         141.5405  139.6696  162.6165 N.ar    1  UNL1       -0.1692
     18 N         142.3282  139.0608  163.7385 N.ar    1  UNL1       -0.2504
     19 C         141.8192  138.0564  164.7295 C.3     1  UNL1        0.1534
     20 C         140.5388  138.3132  165.4674 C.ar    1  UNL1        0.0021
     21 C         139.3660  137.3979  165.2755 C.ar    1  UNL1       -0.0023
     22 C         138.0856  137.6547  166.0134 C.ar    1  UNL1       -0.0003
     23 C         137.9779  138.8269  166.9431 C.ar    1  UNL1       -0.0000
     24 C         139.1506  139.7422  167.1351 C.ar    1  UNL1       -0.0003
     25 C         140.4311  139.4854  166.3972 C.ar    1  UNL1       -0.0023
     26 N         139.4409  145.8761  161.5652 N.pl3   1  UNL1       -0.2825
     27 H         139.2123  146.8084  161.7839 H       1  UNL1        0.1551
     28 C         139.0812  144.7730  162.5158 C.ar    1  UNL1        0.0518
     29 C         139.1923  144.9920  163.9956 C.ar    1  UNL1        0.0148
     30 C         138.8326  143.8889  164.9462 C.ar    1  UNL1        0.0026
     31 C         138.3617  142.5667  164.4171 C.ar    1  UNL1        0.0200
     32 C         138.2505  142.3476  162.9374 C.ar    1  UNL1        0.1229
     33 C         138.6103  143.4508  161.9867 C.ar    1  UNL1        0.0346
     34 S         137.7796  141.0254  162.4082 S.O2    1  UNL1        0.0572
     35 N         137.3087  139.7032  161.8791 N.3     1  UNL1       -0.2035
     36 O         137.8941  140.4348  163.7822 O.2     1  UNL1       -0.1532
     37 O         137.6651  141.6160  161.0342 O.2     1  UNL1       -0.1532
     38 H         137.2754  139.0248  162.6401 H       1  UNL1        0.1442
     39 H         137.9535  139.3757  161.1597 H       1  UNL1        0.1442
@<TRIPOS>BOND
     1     9    10    1
     2    10    11   ar
     3    11    12   ar
     4    12    13   ar
     5    13    14   ar
     6    14     7    1
     7     7     8    1
     8     7     1    1
     9     1     2   ar
    10     2     3   ar
    11     3     4   ar
    12     4     5   ar
    13     5    26    1
    14    26    28    1
    15    28    29   ar
    16    29    30   ar
    17    30    31   ar
    18    31    32   ar
    19    32    34    1
    20    34    35    1
    21    34    36    2
    22    34    37    2
    23    32    33   ar
    24     5     6   ar
    25    14    15   ar
    26    15    16   ar
    27    16    17   ar
    28    17    18   ar
    29    18    19    1
    30    19    20    1
    31    20    21   ar
    32    21    22   ar
    33    22    23   ar
    34    23    24   ar
    35    24    25   ar
    36    18    10   ar
    37    25    20   ar
    38    16    11   ar
    39     6     1   ar
    40    33    28   ar
    41    26    27    1
    42    35    38    1
    43    35    39    1
@<TRIPOS>MOLECULE
*****
 39 43 0 0 0
SMALL
GASTEIGER

@<TRIPOS>ATOM
      1 C         140.5877  139.6611  159.5436 C.ar    1  UNL1        0.1399
      2 C         140.6818  138.8784  158.2674 C.ar    1  UNL1        0.0554
      3 C         141.9570  138.1727  157.9127 C.ar    1  UNL1        0.1047
      4 N         143.1381  138.2497  158.8342 N.ar    1  UNL1       -0.2119
      5 C         143.0440  139.0324  160.1104 C.ar    1  UNL1        0.2218
      6 N         141.7688  139.7381  160.4651 N.ar    1  UNL1       -0.1983
      7 N         139.3124  140.3668  159.8983 N.pl3   1  UNL1       -0.2705
      8 C         138.1025  140.2135  159.0250 C.3     1  UNL1        0.1187
      9 C         138.6226  144.8853  165.3516 C.3     1  UNL1        0.0518
     10 C         139.2246  143.5750  164.9385 C.ar    1  UNL1        0.0578
     11 C         139.1165  142.9437  163.5821 C.ar    1  UNL1        0.0326
     12 C         138.4327  143.3839  162.3218 C.ar    1  UNL1        0.0040
     13 C         138.4981  142.5249  161.0938 C.ar    1  UNL1        0.0150
     14 C         139.2471  141.2257  161.1263 C.ar    1  UNL1        0.0543
     15 C         139.9309  140.7855  162.3867 C.ar    1  UNL1        0.0357
     16 C         139.8656  141.6445  163.6146 C.ar    1  UNL1        0.1033
     17 N         140.4367  141.4730  164.9910 N.ar    1  UNL1       -0.1692
     18 N         140.0405  142.6661  165.8092 N.ar    1  UNL1       -0.2504
     19 C         140.3976  142.9079  167.2459 C.3     1  UNL1        0.1534
     20 C         140.8845  141.7741  168.0988 C.ar    1  UNL1        0.0021
     21 C         139.9299  141.0520  169.0028 C.ar    1  UNL1       -0.0023
     22 C         140.4168  139.9182  169.8557 C.ar    1  UNL1       -0.0003
     23 C         141.8583  139.5065  169.8045 C.ar    1  UNL1       -0.0000
     24 C         142.8129  140.2286  168.9005 C.ar    1  UNL1       -0.0003
     25 C         142.3260  141.3624  168.0476 C.ar    1  UNL1       -0.0023
     26 N         144.2251  139.1093  161.0318 N.pl3   1  UNL1       -0.2825
     27 H         145.0289  138.5716  160.8477 H       1  UNL1        0.1551
     28 C         144.1815  140.0057  162.2338 C.ar    1  UNL1        0.0518
     29 C         144.2943  139.4204  163.6103 C.ar    1  UNL1        0.0148
     30 C         144.2507  140.3167  164.8122 C.ar    1  UNL1        0.0026
     31 C         144.0942  141.7983  164.6377 C.ar    1  UNL1        0.0200
     32 C         143.9814  142.3835  163.2612 C.ar    1  UNL1        0.1229
     33 C         144.0250  141.4872  162.0593 C.ar    1  UNL1        0.0346
     34 S         143.8249  143.8651  163.0867 S.O2    1  UNL1        0.0572
     35 N         143.6684  145.3467  162.9122 N.3     1  UNL1       -0.2035
     36 O         143.0175  143.9286  164.3492 O.2     1  UNL1       -0.1532
     37 O         144.6323  143.8017  161.8242 O.2     1  UNL1       -0.1532
     38 H         143.1153  145.7232  163.6820 H       1  UNL1        0.1442
     39 H         143.1953  145.5369  162.0288 H       1  UNL1        0.1442
@<TRIPOS>BOND
     1     9    10    1
     2    10    11   ar
     3    11    12   ar
     4    12    13   ar
     5    13    14   ar
     6    14     7    1
     7     7     8    1
     8     7     1    1
     9     1     2   ar
    10     2     3   ar
    11     3     4   ar
    12     4     5   ar
    13     5    26    1
    14    26    28    1
    15    28    29   ar
    16    29    30   ar
    17    30    31   ar
    18    31    32   ar
    19    32    34    1
    20    34    35    1
    21    34    36    2
    22    34    37    2
    23    32    33   ar
    24     5     6   ar
    25    14    15   ar
    26    15    16   ar
    27    16    17   ar
    28    17    18   ar
    29    18    19    1
    30    19    20    1
    31    20    21   ar
    32    21    22   ar
    33    22    23   ar
    34    23    24   ar
    35    24    25   ar
    36    18    10   ar
    37    25    20   ar
    38    16    11   ar
    39     6     1   ar
    40    33    28   ar
    41    26    27    1
    42    35    38    1
    43    35    39    1
@<TRIPOS>MOLECULE
*****
 39 43 0 0 0
SMALL
GASTEIGER

@<TRIPOS>ATOM
      1 C         140.4804  139.0705  159.8525 C.ar    1  UNL1        0.1399
      2 C         140.4495  138.5621  158.4417 C.ar    1  UNL1        0.0554
      3 C         141.7281  138.1946  157.7487 C.ar    1  UNL1        0.1047
      4 N         143.0376  138.3357  158.4665 N.ar    1  UNL1       -0.2119
      5 C         143.0686  138.8442  159.8774 C.ar    1  UNL1        0.2218
      6 N         141.7900  139.2116  160.5704 N.ar    1  UNL1       -0.1983
      7 N         139.2019  139.4380  160.5455 N.pl3   1  UNL1       -0.2705
      8 C         137.9410  139.6101  159.7515 C.3     1  UNL1        0.1187
      9 C         138.9059  139.7065  167.6499 C.3     1  UNL1        0.0518
     10 C         139.2272  140.5090  166.4241 C.ar    1  UNL1        0.0578
     11 C         139.1488  140.0236  165.0069 C.ar    1  UNL1        0.0326
     12 C         138.7588  138.6996  164.4197 C.ar    1  UNL1        0.0040
     13 C         138.7765  138.5044  162.9325 C.ar    1  UNL1        0.0150
     14 C         139.1842  139.6332  162.0327 C.ar    1  UNL1        0.0543
     15 C         139.5741  140.9572  162.6200 C.ar    1  UNL1        0.0357
     16 C         139.5564  141.1524  164.1071 C.ar    1  UNL1        0.1033
     17 N         139.8868  142.3354  164.9682 N.ar    1  UNL1       -0.1692
     18 N         139.6833  141.9378  166.4001 N.ar    1  UNL1       -0.2504
     19 C         139.8983  142.8149  167.5978 C.3     1  UNL1        0.1534
     20 C         141.1814  142.7289  168.3698 C.ar    1  UNL1        0.0021
     21 C         142.4293  142.2369  167.6983 C.ar    1  UNL1       -0.0023
     22 C         143.7124  142.1510  168.4703 C.ar    1  UNL1       -0.0003
     23 C         143.7479  142.5570  169.9138 C.ar    1  UNL1       -0.0000
     24 C         142.5001  143.0490  170.5854 C.ar    1  UNL1       -0.0003
     25 C         141.2169  143.1349  169.8134 C.ar    1  UNL1       -0.0023
     26 N         144.3780  138.9852  160.5952 N.pl3   1  UNL1       -0.2825
     27 H         145.1752  138.5132  160.2623 H       1  UNL1        0.1551
     28 C         144.4729  139.8455  161.8204 C.ar    1  UNL1        0.0518
     29 C         144.7539  139.2214  163.1551 C.ar    1  UNL1        0.0148
     30 C         144.8488  140.0817  164.3802 C.ar    1  UNL1        0.0026
     31 C         144.6627  141.5660  164.2706 C.ar    1  UNL1        0.0200
     32 C         144.3817  142.1901  162.9359 C.ar    1  UNL1        0.1229
     33 C         144.2868  141.3298  161.7108 C.ar    1  UNL1        0.0346
     34 S         144.1956  143.6745  162.8262 S.O2    1  UNL1        0.0572
     35 N         144.0095  145.1589  162.7166 N.3     1  UNL1       -0.2035
     36 O         143.9272  143.7497  164.3001 O.2     1  UNL1       -0.1532
     37 O         144.4640  143.5994  161.3524 O.2     1  UNL1       -0.1532
     38 H         143.7952  145.5435  163.6367 H       1  UNL1        0.1442
     39 H         143.2405  145.3588  162.0770 H       1  UNL1        0.1442
@<TRIPOS>BOND
     1     9    10    1
     2    10    11   ar
     3    11    12   ar
     4    12    13   ar
     5    13    14   ar
     6    14     7    1
     7     7     8    1
     8     7     1    1
     9     1     2   ar
    10     2     3   ar
    11     3     4   ar
    12     4     5   ar
    13     5    26    1
    14    26    28    1
    15    28    29   ar
    16    29    30   ar
    17    30    31   ar
    18    31    32   ar
    19    32    34    1
    20    34    35    1
    21    34    36    2
    22    34    37    2
    23    32    33   ar
    24     5     6   ar
    25    14    15   ar
    26    15    16   ar
    27    16    17   ar
    28    17    18   ar
    29    18    19    1
    30    19    20    1
    31    20    21   ar
    32    21    22   ar
    33    22    23   ar
    34    23    24   ar
    35    24    25   ar
    36    18    10   ar
    37    25    20   ar
    38    16    11   ar
    39     6     1   ar
    40    33    28   ar
    41    26    27    1
    42    35    38    1
    43    35    39    1
@<TRIPOS>MOLECULE
*****
 39 43 0 0 0
SMALL
GASTEIGER

@<TRIPOS>ATOM
      1 C         140.9681  141.1840  168.0426 C.ar    1  UNL1        0.1399
      2 C         140.6107  141.2013  169.4993 C.ar    1  UNL1        0.0554
      3 C         139.4370  140.4084  169.9930 C.ar    1  UNL1        0.1047
      4 N         138.6208  139.5981  169.0301 N.ar    1  UNL1       -0.2119
      5 C         138.9782  139.5808  167.5734 C.ar    1  UNL1        0.2218
      6 N         140.1518  140.3737  167.0796 N.ar    1  UNL1       -0.1983
      7 N         142.1418  141.9769  167.5489 N.pl3   1  UNL1       -0.2705
      8 C         143.2309  142.3758  168.4999 C.3     1  UNL1        0.1187
      9 C         141.9401  144.1763  160.7847 C.3     1  UNL1        0.0518
     10 C         142.7483  143.3915  161.7752 C.ar    1  UNL1        0.0578
     11 C         142.3950  143.1590  163.2143 C.ar    1  UNL1        0.0326
     12 C         141.2257  143.5986  164.0445 C.ar    1  UNL1        0.0040
     13 C         141.1412  143.2046  165.4893 C.ar    1  UNL1        0.0150
     14 C         142.2262  142.3709  166.1040 C.ar    1  UNL1        0.0543
     15 C         143.3956  141.9313  165.2738 C.ar    1  UNL1        0.0357
     16 C         143.4800  142.3253  163.8290 C.ar    1  UNL1        0.1033
     17 N         144.5037  142.0426  162.7697 N.ar    1  UNL1       -0.1692
     18 N         144.0515  142.7016  161.5003 N.ar    1  UNL1       -0.2504
     19 C         144.7754  142.6753  160.1868 C.3     1  UNL1        0.1534
     20 C         144.2920  141.7836  159.0818 C.ar    1  UNL1        0.0021
     21 C         143.6527  140.4660  159.4066 C.ar    1  UNL1       -0.0023
     22 C         143.1692  139.5743  158.3015 C.ar    1  UNL1       -0.0003
     23 C         143.3251  140.0001  156.8717 C.ar    1  UNL1       -0.0000
     24 C         143.9643  141.3176  156.5469 C.ar    1  UNL1       -0.0003
     25 C         144.4478  142.2094  157.6520 C.ar    1  UNL1       -0.0023
     26 N         138.1619  138.7705  166.6105 N.pl3   1  UNL1       -0.2825
     27 H         137.4751  138.1509  166.9474 H       1  UNL1        0.1551
     28 C         138.3922  138.9044  165.1343 C.ar    1  UNL1        0.0518
     29 C         138.9174  137.7396  164.3485 C.ar    1  UNL1        0.0148
     30 C         139.1477  137.8735  162.8724 C.ar    1  UNL1        0.0026
     31 C         138.8527  139.1721  162.1820 C.ar    1  UNL1        0.0200
     32 C         138.3276  140.3368  162.9678 C.ar    1  UNL1        0.1229
     33 C         138.0973  140.2030  164.4440 C.ar    1  UNL1        0.0346
     34 S         138.0326  141.6355  162.2774 S.O2    1  UNL1        0.0572
     35 N         137.7377  142.9341  161.5871 N.3     1  UNL1       -0.2035
     36 O         139.3220  141.5251  161.5190 O.2     1  UNL1       -0.1532
     37 O         136.7432  141.7458  163.0358 O.2     1  UNL1       -0.1532
     38 H         138.4975  143.1576  160.9444 H       1  UNL1        0.1442
     39 H         137.6503  143.6761  162.2814 H       1  UNL1        0.1442
@<TRIPOS>BOND
     1     9    10    1
     2    10    11   ar
     3    11    12   ar
     4    12    13   ar
     5    13    14   ar
     6    14     7    1
     7     7     8    1
     8     7     1    1
     9     1     2   ar
    10     2     3   ar
    11     3     4   ar
    12     4     5   ar
    13     5    26    1
    14    26    28    1
    15    28    29   ar
    16    29    30   ar
    17    30    31   ar
    18    31    32   ar
    19    32    34    1
    20    34    35    1
    21    34    36    2
    22    34    37    2
    23    32    33   ar
    24     5     6   ar
    25    14    15   ar
    26    15    16   ar
    27    16    17   ar
    28    17    18   ar
    29    18    19    1
    30    19    20    1
    31    20    21   ar
    32    21    22   ar
    33    22    23   ar
    34    23    24   ar
    35    24    25   ar
    36    18    10   ar
    37    25    20   ar
    38    16    11   ar
    39     6     1   ar
    40    33    28   ar
    41    26    27    1
    42    35    38    1
    43    35    39    1
@<TRIPOS>MOLECULE
*****
 39 43 0 0 0
SMALL
GASTEIGER

@<TRIPOS>ATOM
      1 C         139.4965  140.1809  162.8524 C.ar    1  UNL1        0.1399
      2 C         138.6487  139.0308  163.3090 C.ar    1  UNL1        0.0554
      3 C         138.9038  138.3942  164.6430 C.ar    1  UNL1        0.1047
      4 N         140.0066  138.9077  165.5205 N.ar    1  UNL1       -0.2119
      5 C         140.8544  140.0579  165.0639 C.ar    1  UNL1        0.2218
      6 N         140.5994  140.6944  163.7299 N.ar    1  UNL1       -0.1983
      7 N         139.2414  140.8175  161.5183 N.pl3   1  UNL1       -0.2705
      8 C         138.6055  142.1739  161.4439 C.3     1  UNL1        0.1187
      9 C         140.4711  137.6617  155.2604 C.3     1  UNL1        0.0518
     10 C         141.0124  137.8438  156.6474 C.ar    1  UNL1        0.0578
     11 C         140.3838  138.6577  157.7394 C.ar    1  UNL1        0.0326
     12 C         139.1265  139.4744  157.7856 C.ar    1  UNL1        0.0040
     13 C         138.7458  140.1943  159.0452 C.ar    1  UNL1        0.0150
     14 C         139.6222  140.0975  160.2587 C.ar    1  UNL1        0.0543
     15 C         140.8795  139.2807  160.2125 C.ar    1  UNL1        0.0357
     16 C         141.2603  138.5608  158.9529 C.ar    1  UNL1        0.1033
     17 N         142.4306  137.6871  158.6108 N.ar    1  UNL1       -0.1692
     18 N         142.2774  137.2439  157.1859 N.ar    1  UNL1       -0.2504
     19 C         143.2232  136.3567  156.4320 C.3     1  UNL1        0.1534
     20 C         142.9927  134.8751  156.3943 C.ar    1  UNL1        0.0021
     21 C         143.8619  133.9599  157.2051 C.ar    1  UNL1       -0.0023
     22 C         143.6314  132.4783  157.1674 C.ar    1  UNL1       -0.0003
     23 C         142.5318  131.9116  156.3190 C.ar    1  UNL1       -0.0000
     24 C         141.6627  132.8266  155.5083 C.ar    1  UNL1       -0.0003
     25 C         141.8931  134.3084  155.5459 C.ar    1  UNL1       -0.0023
     26 N         141.9573  140.5714  165.9414 N.pl3   1  UNL1       -0.2825
     27 H         142.7585  140.9772  165.5383 H       1  UNL1        0.1551
     28 C         141.8393  140.4666  167.4331 C.ar    1  UNL1        0.0518
     29 C         142.5590  139.3745  168.1675 C.ar    1  UNL1        0.0148
     30 C         142.4411  139.2697  169.6591 C.ar    1  UNL1        0.0026
     31 C         141.6034  140.2569  170.4164 C.ar    1  UNL1        0.0200
     32 C         140.8836  141.3490  169.6821 C.ar    1  UNL1        0.1229
     33 C         141.0016  141.4538  168.1904 C.ar    1  UNL1        0.0346
     34 S         140.0459  142.3363  170.4394 S.O2    1  UNL1        0.0572
     35 N         139.2082  143.3236  171.1967 N.3     1  UNL1       -0.2035
     36 O         138.8802  141.3944  170.3778 O.2     1  UNL1       -0.1532
     37 O         141.2116  143.2783  170.5009 O.2     1  UNL1       -0.1532
     38 H         138.2709  142.9434  171.3288 H       1  UNL1        0.1442
     39 H         139.1504  144.1951  170.6699 H       1  UNL1        0.1442
@<TRIPOS>BOND
     1     9    10    1
     2    10    11   ar
     3    11    12   ar
     4    12    13   ar
     5    13    14   ar
     6    14     7    1
     7     7     8    1
     8     7     1    1
     9     1     2   ar
    10     2     3   ar
    11     3     4   ar
    12     4     5   ar
    13     5    26    1
    14    26    28    1
    15    28    29   ar
    16    29    30   ar
    17    30    31   ar
    18    31    32   ar
    19    32    34    1
    20    34    35    1
    21    34    36    2
    22    34    37    2
    23    32    33   ar
    24     5     6   ar
    25    14    15   ar
    26    15    16   ar
    27    16    17   ar
    28    17    18   ar
    29    18    19    1
    30    19    20    1
    31    20    21   ar
    32    21    22   ar
    33    22    23   ar
    34    23    24   ar
    35    24    25   ar
    36    18    10   ar
    37    25    20   ar
    38    16    11   ar
    39     6     1   ar
    40    33    28   ar
    41    26    27    1
    42    35    38    1
    43    35    39    1
@<TRIPOS>MOLECULE
*****
 39 43 0 0 0
SMALL
GASTEIGER

@<TRIPOS>ATOM
      1 C         139.3870  141.8312  159.8495 C.ar    1  UNL1        0.1399
      2 C         139.0183  141.8650  158.3960 C.ar    1  UNL1        0.0554
      3 C         138.6621  140.5944  157.6828 C.ar    1  UNL1        0.1047
      4 N         138.6746  139.2899  158.4232 N.ar    1  UNL1       -0.2119
      5 C         139.0433  139.2561  159.8769 C.ar    1  UNL1        0.2218
      6 N         139.3995  140.5267  160.5900 N.ar    1  UNL1       -0.1983
      7 N         139.7432  143.1019  160.5627 N.pl3   1  UNL1       -0.2705
      8 C         139.8954  144.3784  159.7898 C.3     1  UNL1        0.1187
      9 C         140.0411  143.2396  167.6707 C.3     1  UNL1        0.0518
     10 C         140.8548  143.0039  166.4329 C.ar    1  UNL1        0.0578
     11 C         140.3553  143.0842  165.0208 C.ar    1  UNL1        0.0326
     12 C         139.0039  143.3979  164.4506 C.ar    1  UNL1        0.0040
     13 C         138.7998  143.4038  162.9646 C.ar    1  UNL1        0.0150
     14 C         139.9473  143.0960  162.0488 C.ar    1  UNL1        0.0543
     15 C         141.2987  142.7823  162.6190 C.ar    1  UNL1        0.0357
     16 C         141.5027  142.7765  164.1050 C.ar    1  UNL1        0.1033
     17 N         142.7114  142.5059  164.9511 N.ar    1  UNL1       -0.1692
     18 N         142.3110  142.6464  166.3898 N.ar    1  UNL1       -0.2504
     19 C         143.2091  142.4620  167.5770 C.3     1  UNL1        0.1534
     20 C         143.0377  141.2680  168.4687 C.ar    1  UNL1        0.0021
     21 C         142.7519  139.9215  167.8726 C.ar    1  UNL1       -0.0023
     22 C         142.5806  138.7276  168.7643 C.ar    1  UNL1       -0.0003
     23 C         142.6950  138.8801  170.2521 C.ar    1  UNL1       -0.0000
     24 C         142.9808  140.2265  170.8483 C.ar    1  UNL1       -0.0003
     25 C         143.1521  141.4206  169.9566 C.ar    1  UNL1       -0.0023
     26 N         139.0557  137.9517  160.6173 N.pl3   1  UNL1       -0.2825
     27 H         138.7051  137.1383  160.1875 H       1  UNL1        0.1551
     28 C         139.6025  137.8865  162.0126 C.ar    1  UNL1        0.0518
     29 C         141.0454  137.5441  162.2375 C.ar    1  UNL1        0.0148
     30 C         141.5921  137.4789  163.6328 C.ar    1  UNL1        0.0026
     31 C         140.6959  137.7560  164.8032 C.ar    1  UNL1        0.0200
     32 C         139.2529  138.0983  164.5783 C.ar    1  UNL1        0.1229
     33 C         138.7062  138.1636  163.1830 C.ar    1  UNL1        0.0346
     34 S         138.3566  138.3755  165.7487 S.O2    1  UNL1        0.0572
     35 N         137.4603  138.6526  166.9191 N.3     1  UNL1       -0.2035
     36 O         138.1226  136.9036  165.9180 O.2     1  UNL1       -0.1532
     37 O         138.5906  139.8474  165.5795 O.2     1  UNL1       -0.1532
     38 H         137.1071  137.7717  167.2929 H       1  UNL1        0.1442
     39 H         136.6771  139.2324  166.6178 H       1  UNL1        0.1442
@<TRIPOS>BOND
     1     9    10    1
     2    10    11   ar
     3    11    12   ar
     4    12    13   ar
     5    13    14   ar
     6    14     7    1
     7     7     8    1
     8     7     1    1
     9     1     2   ar
    10     2     3   ar
    11     3     4   ar
    12     4     5   ar
    13     5    26    1
    14    26    28    1
    15    28    29   ar
    16    29    30   ar
    17    30    31   ar
    18    31    32   ar
    19    32    34    1
    20    34    35    1
    21    34    36    2
    22    34    37    2
    23    32    33   ar
    24     5     6   ar
    25    14    15   ar
    26    15    16   ar
    27    16    17   ar
    28    17    18   ar
    29    18    19    1
    30    19    20    1
    31    20    21   ar
    32    21    22   ar
    33    22    23   ar
    34    23    24   ar
    35    24    25   ar
    36    18    10   ar
    37    25    20   ar
    38    16    11   ar
    39     6     1   ar
    40    33    28   ar
    41    26    27    1
    42    35    38    1
    43    35    39    1
