@<TRIPOS>MOLECULE
*****
 21 21 0 0 0
SMALL
GASTEIGER

@<TRIPOS>ATOM
      1 C         138.9060  139.2779  165.7008 C.ar    1  UNL1        0.1382
      2 C         139.3060  137.9602  165.1062 C.ar    1  UNL1        0.0369
      3 C         139.0460  137.6823  163.6552 C.ar    1  UNL1        0.0028
      4 C         138.3860  138.7221  162.7990 C.ar    1  UNL1       -0.0040
      5 C         137.9860  140.0397  163.3937 C.ar    1  UNL1       -0.0178
      6 C         138.2460  140.3176  164.8446 C.ar    1  UNL1        0.0327
      7 O         139.1660  139.5558  167.1518 O.3     1  UNL1       -0.4755
      8 C         140.2750  140.4836  167.5507 C.3     1  UNL1        0.2054
      9 C         140.0845  141.4303  168.6985 C.3     1  UNL1        0.0473
     10 C         140.4397  143.7729  169.7645 C.3     1  UNL1        0.0001
     11 C         140.6726  142.8090  168.6390 C.3     1  UNL1        0.0038
     12 C         137.3259  141.0796  162.5374 C.3     1  UNL1        0.0435
     13 C         138.1451  142.1755  161.9229 C.3     1  UNL1        0.0737
     14 N         137.6500  143.5911  161.9566 N.3     1  UNL1       -0.2895
     15 H         136.6333  143.5459  162.0244 H       1  UNL1        0.1237
     16 C         138.1150  144.5227  163.0363 C.3     1  UNL1        0.1552
     17 C         139.4662  145.1669  162.9404 C.2     1  UNL1        0.2419
     18 O         139.6933  146.2935  161.9765 O.2     1  UNL1       -0.2734
     19 N         140.5904  144.6845  163.8085 N.am    1  UNL1       -0.2749
     20 C         141.9416  145.3287  163.7126 C.3     1  UNL1        0.1149
     21 C         140.3633  143.5579  164.7725 C.3     1  UNL1        0.1149
@<TRIPOS>BOND
     1    10    11    1
     2    11     9    1
     3     9     8    1
     4     8     7    1
     5     7     1    1
     6     1     2   ar
     7     2     3   ar
     8     3     4   ar
     9     4     5   ar
    10     5    12    1
    11    12    13    1
    12    13    14    1
    13    14    16    1
    14    16    17    1
    15    17    18    2
    16    17    19   am
    17    19    20    1
    18    19    21    1
    19     5     6   ar
    20     6     1   ar
    21    14    15    1
@<TRIPOS>MOLECULE
*****
 21 21 0 0 0
SMALL
GASTEIGER

@<TRIPOS>ATOM
      1 C         137.8859  140.4500  163.3134 C.ar    1  UNL1        0.1382
      2 C         138.4124  139.2940  162.5157 C.ar    1  UNL1        0.0369
      3 C         138.9242  138.0705  163.2163 C.ar    1  UNL1        0.0028
      4 C         138.9094  138.0029  164.7147 C.ar    1  UNL1       -0.0040
      5 C         138.3829  139.1589  165.5124 C.ar    1  UNL1       -0.0178
      6 C         137.8711  140.3824  164.8117 C.ar    1  UNL1        0.0327
      7 O         137.3741  141.6736  162.6127 O.3     1  UNL1       -0.4755
      8 C         137.8019  143.0356  163.0730 C.3     1  UNL1        0.2054
      9 C         139.2500  143.3137  163.3481 C.3     1  UNL1        0.0473
     10 C         138.5808  144.8539  165.3306 C.3     1  UNL1        0.0001
     11 C         139.6398  144.1835  164.5064 C.3     1  UNL1        0.0038
     12 C         138.3681  139.0913  167.0109 C.3     1  UNL1        0.0435
     13 C         139.3747  139.8681  167.8066 C.3     1  UNL1        0.0737
     14 N         139.3545  139.8073  169.3053 N.3     1  UNL1       -0.2895
     15 H         138.9831  138.8915  169.5578 H       1  UNL1        0.1237
     16 C         140.6260  139.9877  170.0804 C.3     1  UNL1        0.1552
     17 C         141.8751  140.4324  169.3791 C.2     1  UNL1        0.2419
     18 O         142.8772  139.4169  168.9159 O.2     1  UNL1       -0.2734
     19 N         142.1223  141.8927  169.1411 N.am    1  UNL1       -0.2749
     20 C         143.3714  142.3374  168.4398 C.3     1  UNL1        0.1149
     21 C         141.1202  142.9082  169.6043 C.3     1  UNL1        0.1149
@<TRIPOS>BOND
     1    10    11    1
     2    11     9    1
     3     9     8    1
     4     8     7    1
     5     7     1    1
     6     1     2   ar
     7     2     3   ar
     8     3     4   ar
     9     4     5   ar
    10     5    12    1
    11    12    13    1
    12    13    14    1
    13    14    16    1
    14    16    17    1
    15    17    18    2
    16    17    19   am
    17    19    20    1
    18    19    21    1
    19     5     6   ar
    20     6     1   ar
    21    14    15    1
@<TRIPOS>MOLECULE
*****
 21 21 0 0 0
SMALL
GASTEIGER

@<TRIPOS>ATOM
      1 C         142.0670  141.3064  166.3695 C.ar    1  UNL1        0.1382
      2 C         141.4650  139.9419  166.5295 C.ar    1  UNL1        0.0369
      3 C         142.1234  138.7527  165.8954 C.ar    1  UNL1        0.0028
      4 C         143.3838  138.9279  165.1013 C.ar    1  UNL1       -0.0040
      5 C         143.9859  140.2924  164.9414 C.ar    1  UNL1       -0.0178
      6 C         143.3274  141.4817  165.5755 C.ar    1  UNL1        0.0327
      7 O         141.4086  142.4957  167.0037 O.3     1  UNL1       -0.4755
      8 C         140.7838  142.3717  168.3617 C.3     1  UNL1        0.2054
      9 C         141.2597  143.2402  169.4883 C.3     1  UNL1        0.0473
     10 C         143.6574  142.2456  169.5974 C.3     1  UNL1        0.0001
     11 C         142.4648  142.8397  170.2866 C.3     1  UNL1        0.0038
     12 C         145.2464  140.4677  164.1474 C.3     1  UNL1        0.0435
     13 C         145.6198  141.8222  163.6224 C.3     1  UNL1        0.0737
     14 N         145.6860  142.0611  162.1430 N.3     1  UNL1       -0.2895
     15 H         145.6902  141.1441  161.6965 H       1  UNL1        0.1237
     16 C         144.6186  142.8680  161.4650 C.3     1  UNL1        0.1552
     17 C         143.6607  143.6823  162.2831 C.2     1  UNL1        0.2419
     18 O         144.0588  145.0446  162.7685 O.2     1  UNL1       -0.2734
     19 N         142.3046  143.1342  162.6158 N.am    1  UNL1       -0.2749
     20 C         141.3466  143.9485  163.4339 C.3     1  UNL1        0.1149
     21 C         141.9065  141.7719  162.1305 C.3     1  UNL1        0.1149
@<TRIPOS>BOND
     1    10    11    1
     2    11     9    1
     3     9     8    1
     4     8     7    1
     5     7     1    1
     6     1     2   ar
     7     2     3   ar
     8     3     4   ar
     9     4     5   ar
    10     5    12    1
    11    12    13    1
    12    13    14    1
    13    14    16    1
    14    16    17    1
    15    17    18    2
    16    17    19   am
    17    19    20    1
    18    19    21    1
    19     5     6   ar
    20     6     1   ar
    21    14    15    1
@<TRIPOS>MOLECULE
*****
 21 21 0 0 0
SMALL
GASTEIGER

@<TRIPOS>ATOM
      1 C         140.9383  141.5729  164.9563 C.ar    1  UNL1        0.1382
      2 C         141.6417  140.8295  166.0528 C.ar    1  UNL1        0.0369
      3 C         142.9723  141.3103  166.5512 C.ar    1  UNL1        0.0028
      4 C         143.5995  142.5346  165.9530 C.ar    1  UNL1       -0.0040
      5 C         142.8960  143.2780  164.8565 C.ar    1  UNL1       -0.0178
      6 C         141.5655  142.7972  164.3581 C.ar    1  UNL1        0.0327
      7 O         139.6077  141.0921  164.4579 O.3     1  UNL1       -0.4755
      8 C         138.3531  141.8113  164.8563 C.3     1  UNL1        0.2054
      9 C         137.7355  142.8132  163.9264 C.3     1  UNL1        0.0473
     10 C         138.5821  144.8023  165.3676 C.3     1  UNL1        0.0001
     11 C         138.0712  144.2689  164.0620 C.3     1  UNL1        0.0038
     12 C         143.5232  144.5023  164.2582 C.3     1  UNL1        0.0435
     13 C         143.6141  144.6464  162.7680 C.3     1  UNL1        0.0737
     14 N         144.7598  144.0278  162.0231 N.3     1  UNL1       -0.2895
     15 H         145.5755  144.0913  162.6321 H       1  UNL1        0.1237
     16 C         144.6730  142.6029  161.5626 C.3     1  UNL1        0.1552
     17 C         144.9243  141.4853  162.5309 C.2     1  UNL1        0.2419
     18 O         146.1649  141.4881  163.3741 O.2     1  UNL1       -0.2734
     19 N         143.9349  140.3647  162.6561 N.am    1  UNL1       -0.2749
     20 C         144.1862  139.2470  163.6244 C.3     1  UNL1        0.1149
     21 C         142.6943  140.3619  161.8129 C.3     1  UNL1        0.1149
@<TRIPOS>BOND
     1    10    11    1
     2    11     9    1
     3     9     8    1
     4     8     7    1
     5     7     1    1
     6     1     2   ar
     7     2     3   ar
     8     3     4   ar
     9     4     5   ar
    10     5    12    1
    11    12    13    1
    12    13    14    1
    13    14    16    1
    14    16    17    1
    15    17    18    2
    16    17    19   am
    17    19    20    1
    18    19    21    1
    19     5     6   ar
    20     6     1   ar
    21    14    15    1
@<TRIPOS>MOLECULE
*****
 21 21 0 0 0
SMALL
GASTEIGER

@<TRIPOS>ATOM
      1 C         140.2515  139.9206  166.5399 C.ar    1  UNL1        0.1382
      2 C         138.9227  139.5583  167.1339 C.ar    1  UNL1        0.0369
      3 C         138.1254  138.4276  166.5544 C.ar    1  UNL1        0.0028
      4 C         138.6569  137.6592  165.3810 C.ar    1  UNL1       -0.0040
      5 C         139.9858  138.0215  164.7870 C.ar    1  UNL1       -0.0178
      6 C         140.7831  139.1523  165.3665 C.ar    1  UNL1        0.0327
      7 O         141.0488  141.0513  167.1194 O.3     1  UNL1       -0.4755
      8 C         140.4927  142.4444  167.1079 C.3     1  UNL1        0.2054
      9 C         140.3977  143.2033  165.8175 C.3     1  UNL1        0.0473
     10 C         139.0041  144.7209  164.2348 C.3     1  UNL1        0.0001
     11 C         139.2901  144.1934  165.6095 C.3     1  UNL1        0.0038
     12 C         140.5174  137.2532  163.6135 C.3     1  UNL1        0.0435
     13 C         140.3520  137.7955  162.2248 C.3     1  UNL1        0.0737
     14 N         139.0570  137.6013  161.4931 N.3     1  UNL1       -0.2895
     15 H         138.7296  136.6618  161.7182 H       1  UNL1        0.1237
     16 C         137.9074  138.5319  161.7430 C.3     1  UNL1        0.1552
     17 C         137.8568  139.8632  161.0537 C.2     1  UNL1        0.2419
     18 O         137.5252  139.9393  159.5928 O.2     1  UNL1       -0.2734
     19 N         138.1379  141.1184  161.8254 N.am    1  UNL1       -0.2749
     20 C         138.0873  142.4497  161.1362 C.3     1  UNL1        0.1149
     21 C         138.4695  141.0423  163.2863 C.3     1  UNL1        0.1149
@<TRIPOS>BOND
     1    10    11    1
     2    11     9    1
     3     9     8    1
     4     8     7    1
     5     7     1    1
     6     1     2   ar
     7     2     3   ar
     8     3     4   ar
     9     4     5   ar
    10     5    12    1
    11    12    13    1
    12    13    14    1
    13    14    16    1
    14    16    17    1
    15    17    18    2
    16    17    19   am
    17    19    20    1
    18    19    21    1
    19     5     6   ar
    20     6     1   ar
    21    14    15    1
@<TRIPOS>MOLECULE
*****
 21 21 0 0 0
SMALL
GASTEIGER

@<TRIPOS>ATOM
      1 C         139.2718  141.7200  164.4216 C.ar    1  UNL1        0.1382
      2 C         137.9311  142.3720  164.5870 C.ar    1  UNL1        0.0369
      3 C         137.8189  143.8678  164.5830 C.ar    1  UNL1        0.0028
      4 C         139.0474  144.7116  164.4136 C.ar    1  UNL1       -0.0040
      5 C         140.3881  144.0595  164.2482 C.ar    1  UNL1       -0.0178
      6 C         140.5003  142.5637  164.2523 C.ar    1  UNL1        0.0327
      7 O         139.3839  140.2242  164.4257 O.3     1  UNL1       -0.4755
      8 C         138.3685  139.3979  165.1579 C.3     1  UNL1        0.2054
      9 C         138.4261  139.2905  166.6529 C.3     1  UNL1        0.0473
     10 C         139.4327  140.2251  168.8582 C.3     1  UNL1        0.0001
     11 C         139.5790  139.8879  167.4040 C.3     1  UNL1        0.0038
     12 C         141.6167  144.9033  164.0788 C.3     1  UNL1        0.0435
     13 C         142.2529  145.0390  162.7273 C.3     1  UNL1        0.0737
     14 N         143.7453  144.9737  162.5908 N.3     1  UNL1       -0.2895
     15 H         144.1366  145.3280  163.4636 H       1  UNL1        0.1237
     16 C         144.4167  143.6607  162.3168 C.3     1  UNL1        0.1552
     17 C         144.6104  142.6712  163.4274 C.2     1  UNL1        0.2419
     18 O         144.7646  143.1504  164.8404 O.2     1  UNL1       -0.2734
     19 N         144.6498  141.2025  163.1249 N.am    1  UNL1       -0.2749
     20 C         144.8435  140.2130  164.2355 C.3     1  UNL1        0.1149
     21 C         144.4956  140.7233  161.7119 C.3     1  UNL1        0.1149
@<TRIPOS>BOND
     1    10    11    1
     2    11     9    1
     3     9     8    1
     4     8     7    1
     5     7     1    1
     6     1     2   ar
     7     2     3   ar
     8     3     4   ar
     9     4     5   ar
    10     5    12    1
    11    12    13    1
    12    13    14    1
    13    14    16    1
    14    16    17    1
    15    17    18    2
    16    17    19   am
    17    19    20    1
    18    19    21    1
    19     5     6   ar
    20     6     1   ar
    21    14    15    1
@<TRIPOS>MOLECULE
*****
 21 21 0 0 0
SMALL
GASTEIGER

@<TRIPOS>ATOM
      1 C         143.0990  140.2529  165.3738 C.ar    1  UNL1        0.1382
      2 C         144.2843  139.5419  164.7912 C.ar    1  UNL1        0.0369
      3 C         145.3405  140.3180  164.0617 C.ar    1  UNL1        0.0028
      4 C         145.2113  141.8052  163.9148 C.ar    1  UNL1       -0.0040
      5 C         144.0260  142.5162  164.4974 C.ar    1  UNL1       -0.0178
      6 C         142.9698  141.7400  165.2269 C.ar    1  UNL1        0.0327
      7 O         142.0429  139.4767  166.1033 O.3     1  UNL1       -0.4755
      8 C         140.9533  138.7885  165.3357 C.3     1  UNL1        0.2054
      9 C         141.2119  137.4559  164.6977 C.3     1  UNL1        0.0473
     10 C         141.6915  138.5068  162.3705 C.3     1  UNL1        0.0001
     11 C         141.2592  137.3364  163.2031 C.3     1  UNL1        0.0038
     12 C         143.8968  144.0034  164.3505 C.3     1  UNL1        0.0435
     13 C         143.9186  144.6271  162.9865 C.3     1  UNL1        0.0737
     14 N         142.6377  145.0704  162.3439 N.3     1  UNL1       -0.2895
     15 H         142.3071  144.2897  161.7770 H       1  UNL1        0.1237
     16 C         141.4828  145.5064  163.1960 C.3     1  UNL1        0.1552
     17 C         140.0766  145.2492  162.7419 C.2     1  UNL1        0.2419
     18 O         139.6016  145.7934  161.4272 O.2     1  UNL1       -0.2734
     19 N         139.1453  144.4478  163.6024 N.am    1  UNL1       -0.2749
     20 C         137.7391  144.1905  163.1482 C.3     1  UNL1        0.1149
     21 C         139.6203  143.9036  164.9170 C.3     1  UNL1        0.1149
@<TRIPOS>BOND
     1    10    11    1
     2    11     9    1
     3     9     8    1
     4     8     7    1
     5     7     1    1
     6     1     2   ar
     7     2     3   ar
     8     3     4   ar
     9     4     5   ar
    10     5    12    1
    11    12    13    1
    12    13    14    1
    13    14    16    1
    14    16    17    1
    15    17    18    2
    16    17    19   am
    17    19    20    1
    18    19    21    1
    19     5     6   ar
    20     6     1   ar
    21    14    15    1
@<TRIPOS>MOLECULE
*****
 21 21 0 0 0
SMALL
GASTEIGER

@<TRIPOS>ATOM
      1 C         143.8990  139.7093  163.3561 C.ar    1  UNL1        0.1382
      2 C         144.2334  139.6826  164.8181 C.ar    1  UNL1        0.0369
      3 C         143.3907  138.8815  165.7657 C.ar    1  UNL1        0.0028
      4 C         142.2135  138.1072  165.2514 C.ar    1  UNL1       -0.0040
      5 C         141.8790  138.1339  163.7895 C.ar    1  UNL1       -0.0178
      6 C         142.7218  138.9349  162.8418 C.ar    1  UNL1        0.0327
      7 O         144.7418  140.5103  162.4085 O.3     1  UNL1       -0.4755
      8 C         145.3845  141.7846  162.8700 C.3     1  UNL1        0.2054
      9 C         144.6325  143.0793  162.7800 C.3     1  UNL1        0.0473
     10 C         144.4590  143.4406  165.3470 C.3     1  UNL1        0.0001
     11 C         143.8807  143.5944  163.9716 C.3     1  UNL1        0.0038
     12 C         140.7018  137.3595  163.2751 C.3     1  UNL1        0.0435
     13 C         139.3295  137.6347  163.8145 C.3     1  UNL1        0.0737
     14 N         138.5881  138.8663  163.3860 N.3     1  UNL1       -0.2895
     15 H         137.7054  138.5531  162.9823 H       1  UNL1        0.1237
     16 C         138.2521  139.9273  164.3916 C.3     1  UNL1        0.1552
     17 C         138.4343  139.6575  165.8558 C.2     1  UNL1        0.2419
     18 O         137.5197  138.7008  166.5616 O.2     1  UNL1       -0.2734
     19 N         139.5311  140.3444  166.6143 N.am    1  UNL1       -0.2749
     20 C         139.7133  140.0746  168.0785 C.3     1  UNL1        0.1149
     21 C         140.4458  141.3011  165.9084 C.3     1  UNL1        0.1149
@<TRIPOS>BOND
     1    10    11    1
     2    11     9    1
     3     9     8    1
     4     8     7    1
     5     7     1    1
     6     1     2   ar
     7     2     3   ar
     8     3     4   ar
     9     4     5   ar
    10     5    12    1
    11    12    13    1
    12    13    14    1
    13    14    16    1
    14    16    17    1
    15    17    18    2
    16    17    19   am
    17    19    20    1
    18    19    21    1
    19     5     6   ar
    20     6     1   ar
    21    14    15    1
@<TRIPOS>MOLECULE
*****
 21 21 0 0 0
SMALL
GASTEIGER

@<TRIPOS>ATOM
      1 C         140.5348  139.7809  166.6394 C.ar    1  UNL1        0.1382
      2 C         139.1486  139.5533  167.1652 C.ar    1  UNL1        0.0369
      3 C         138.2261  138.6027  166.4613 C.ar    1  UNL1        0.0028
      4 C         138.6899  137.8798  165.2316 C.ar    1  UNL1       -0.0040
      5 C         140.0761  138.1074  164.7058 C.ar    1  UNL1       -0.0178
      6 C         140.9986  139.0580  165.4097 C.ar    1  UNL1        0.0327
      7 O         141.4572  140.7315  167.3433 O.3     1  UNL1       -0.4755
      8 C         142.6125  140.2032  168.1410 C.3     1  UNL1        0.2054
      9 C         142.3625  139.4372  169.4061 C.3     1  UNL1        0.0473
     10 C         140.1389  140.0648  170.5943 C.3     1  UNL1        0.0001
     11 C         141.6379  140.0886  170.5466 C.3     1  UNL1        0.0038
     12 C         140.5400  137.3845  163.4760 C.3     1  UNL1        0.0435
     13 C         140.1338  137.8768  162.1186 C.3     1  UNL1        0.0737
     14 N         138.7824  137.5293  161.5681 N.3     1  UNL1       -0.2895
     15 H         138.4659  136.6982  162.0675 H       1  UNL1        0.1237
     16 C         137.6651  138.5277  161.6370 C.3     1  UNL1        0.1552
     17 C         137.8519  139.9027  161.0675 C.2     1  UNL1        0.2419
     18 O         137.9872  140.0885  159.5852 O.2     1  UNL1       -0.2734
     19 N         137.9032  141.0920  161.9802 N.am    1  UNL1       -0.2749
     20 C         138.0899  142.4670  161.4106 C.3     1  UNL1        0.1149
     21 C         137.7678  140.9062  163.4625 C.3     1  UNL1        0.1149
@<TRIPOS>BOND
     1    10    11    1
     2    11     9    1
     3     9     8    1
     4     8     7    1
     5     7     1    1
     6     1     2   ar
     7     2     3   ar
     8     3     4   ar
     9     4     5   ar
    10     5    12    1
    11    12    13    1
    12    13    14    1
    13    14    16    1
    14    16    17    1
    15    17    18    2
    16    17    19   am
    17    19    20    1
    18    19    21    1
    19     5     6   ar
    20     6     1   ar
    21    14    15    1
