@<TRIPOS>MOLECULE
*****
 36 40 0 0 0
SMALL
GASTEIGER

@<TRIPOS>ATOM
      1 N         142.8823  144.1853  162.3950 N.3     1  UNL1       -0.2689
      2 C         142.2843  144.7082  163.6674 C.3     1  UNL1        0.0737
      3 C         140.8277  145.0619  163.7217 C.3     1  UNL1        0.0356
      4 C         139.9689  144.8926  162.5035 C.3     1  UNL1        0.0843
      5 C         140.5669  144.3697  161.2311 C.3     1  UNL1        0.1407
      6 O         139.7080  144.2004  160.0130 O.3     1  UNL1       -0.3817
      7 C         142.0235  144.0160  161.1769 C.3     1  UNL1        0.1031
      8 H         138.7997  144.4725  160.2174 H       1  UNL1        0.2105
      9 N         138.5122  145.2463  162.5578 N.3     1  UNL1       -0.2915
     10 H         138.2271  145.4673  161.6037 H       1  UNL1        0.1236
     11 C         137.5190  144.2551  163.0879 C.3     1  UNL1        0.1153
     12 C         137.7623  142.7849  162.9169 C.ar    1  UNL1        0.0782
     13 C         138.0194  141.9227  164.1171 C.ar    1  UNL1        0.0562
     14 C         138.2627  140.4525  163.9461 C.ar    1  UNL1        0.1752
     15 C         138.2489  139.8444  162.5749 C.ar    1  UNL1        0.1914
     16 C         137.9918  140.7067  161.3747 C.ar    1  UNL1        0.1384
     17 N         137.7485  142.1770  161.5458 N.ar    1  UNL1       -0.2434
     18 O         138.4922  138.3742  162.4039 O.3     1  UNL1       -0.4668
     19 C         138.7493  137.5120  163.6040 C.3     1  UNL1        0.2527
     20 C         138.7631  138.1199  164.9752 C.3     1  UNL1        0.2526
     21 O         138.5198  139.5902  165.1463 O.3     1  UNL1       -0.4683
     22 C         144.3390  143.8316  162.3407 C.3     1  UNL1        0.0970
     23 C         144.8340  142.5863  163.0147 C.3     1  UNL1        0.1264
     24 C         143.1309  141.8487  167.1141 C.ar    1  UNL1        0.1403
     25 C         142.1969  140.6974  167.3422 C.ar    1  UNL1        0.0385
     26 C         141.8305  139.7920  166.2038 C.ar    1  UNL1        0.0237
     27 C         142.3982  140.0378  164.8373 C.ar    1  UNL1        0.0975
     28 N         142.0318  139.1324  163.6989 N.ar    1  UNL1       -0.2374
     29 C         142.5995  139.3782  162.3325 C.ar    1  UNL1        0.1594
     30 C         143.5336  140.5296  162.1044 C.ar    1  UNL1        0.2803
     31 O         144.1013  140.7754  160.7379 O.2     1  UNL1       -0.2653
     32 N         143.9000  141.4350  163.2428 N.ar    1  UNL1       -0.2913
     33 C         143.3322  141.1891  164.6093 C.ar    1  UNL1        0.0832
     34 C         143.6986  142.0945  165.7477 C.ar    1  UNL1        0.0557
     35 C         143.6673  142.1923  169.6329 C.3     1  UNL1        0.2525
     36 O         143.4973  142.7541  168.2526 O.3     1  UNL1       -0.4714
@<TRIPOS>BOND
     1    35    36    1
     2    36    24    1
     3    24    25   ar
     4    25    26   ar
     5    26    27   ar
     6    27    28   ar
     7    28    29   ar
     8    29    30   ar
     9    30    31    2
    10    30    32   ar
    11    32    23    1
    12    23    22    1
    13    22     1    1
    14     1     2    1
    15     2     3    1
    16     3     4    1
    17     4     9    1
    18     9    11    1
    19    11    12    1
    20    12    13   ar
    21    13    14   ar
    22    14    15   ar
    23    15    16   ar
    24    16    17   ar
    25    15    18    1
    26    18    19    1
    27    19    20    1
    28    20    21    1
    29     4     5    1
    30     5     6    1
    31     5     7    1
    32    32    33   ar
    33    33    34   ar
    34    34    24   ar
    35    33    27   ar
    36     7     1    1
    37    17    12   ar
    38    21    14    1
    39     9    10    1
    40     6     8    1
@<TRIPOS>MOLECULE
*****
 36 40 0 0 0
SMALL
GASTEIGER

@<TRIPOS>ATOM
      1 N         138.1216  140.0247  162.6136 N.3     1  UNL1       -0.2689
      2 C         137.7818  140.7549  163.8790 C.3     1  UNL1        0.0737
      3 C         137.6471  142.2488  163.8698 C.3     1  UNL1        0.0356
      4 C         137.8523  143.0124  162.5952 C.3     1  UNL1        0.0843
      5 C         138.1921  142.2822  161.3298 C.3     1  UNL1        0.1407
      6 O         138.3973  143.0460  160.0551 O.3     1  UNL1       -0.3817
      7 C         138.3268  140.7883  161.3390 C.3     1  UNL1        0.1031
      8 H         138.2745  143.9935  160.2226 H       1  UNL1        0.2105
      9 N         137.7177  144.5064  162.5860 N.3     1  UNL1       -0.2915
     10 H         137.0807  144.7493  163.3447 H       1  UNL1        0.1236
     11 C         138.9334  145.3700  162.7480 C.3     1  UNL1        0.1153
     12 C         140.3022  144.7657  162.6420 C.ar    1  UNL1        0.0782
     13 C         141.0084  144.2874  163.8759 C.ar    1  UNL1        0.0562
     14 C         142.3772  143.6831  163.7700 C.ar    1  UNL1        0.1752
     15 C         143.0397  143.5570  162.4301 C.ar    1  UNL1        0.1914
     16 C         142.3335  144.0353  161.1962 C.ar    1  UNL1        0.1384
     17 N         140.9647  144.6396  161.3022 N.ar    1  UNL1       -0.2434
     18 O         144.4085  142.9527  162.3242 O.3     1  UNL1       -0.4668
     19 C         145.1148  142.4745  163.5580 C.3     1  UNL1        0.2527
     20 C         144.4523  142.6005  164.8979 C.3     1  UNL1        0.2526
     21 O         143.0834  143.2048  165.0038 O.3     1  UNL1       -0.4683
     22 C         138.2562  138.5307  162.6228 C.3     1  UNL1        0.0970
     23 C         139.0384  137.8549  163.7098 C.3     1  UNL1        0.1264
     24 C         140.0914  139.6941  167.6794 C.ar    1  UNL1        0.1403
     25 C         141.5036  140.1149  167.9600 C.ar    1  UNL1        0.0385
     26 C         142.5647  139.9227  166.9173 C.ar    1  UNL1        0.0237
     27 C         142.2137  139.3097  165.5941 C.ar    1  UNL1        0.0975
     28 N         143.2748  139.1175  164.5515 N.ar    1  UNL1       -0.2374
     29 C         142.9238  138.5044  163.2283 C.ar    1  UNL1        0.1594
     30 C         141.5116  138.0835  162.9477 C.ar    1  UNL1        0.2803
     31 O         141.1606  137.4705  161.6245 O.2     1  UNL1       -0.2653
     32 N         140.4505  138.2757  163.9903 N.ar    1  UNL1       -0.2913
     33 C         140.8015  138.8888  165.3136 C.ar    1  UNL1        0.0832
     34 C         139.7404  139.0810  166.3562 C.ar    1  UNL1        0.0557
     35 C         139.2808  140.7957  169.8883 C.3     1  UNL1        0.2525
     36 O         139.0303  139.8862  168.7221 O.3     1  UNL1       -0.4714
@<TRIPOS>BOND
     1    35    36    1
     2    36    24    1
     3    24    25   ar
     4    25    26   ar
     5    26    27   ar
     6    27    28   ar
     7    28    29   ar
     8    29    30   ar
     9    30    31    2
    10    30    32   ar
    11    32    23    1
    12    23    22    1
    13    22     1    1
    14     1     2    1
    15     2     3    1
    16     3     4    1
    17     4     9    1
    18     9    11    1
    19    11    12    1
    20    12    13   ar
    21    13    14   ar
    22    14    15   ar
    23    15    16   ar
    24    16    17   ar
    25    15    18    1
    26    18    19    1
    27    19    20    1
    28    20    21    1
    29     4     5    1
    30     5     6    1
    31     5     7    1
    32    32    33   ar
    33    33    34   ar
    34    34    24   ar
    35    33    27   ar
    36     7     1    1
    37    17    12   ar
    38    21    14    1
    39     9    10    1
    40     6     8    1
@<TRIPOS>MOLECULE
*****
 36 40 0 0 0
SMALL
GASTEIGER

@<TRIPOS>ATOM
      1 N         140.1017  143.9731  164.1129 N.3     1  UNL1       -0.2689
      2 C         140.6156  143.0933  165.2138 C.3     1  UNL1        0.0737
      3 C         142.0928  142.9150  165.4037 C.3     1  UNL1        0.0356
      4 C         143.0561  143.6164  164.4927 C.3     1  UNL1        0.0843
      5 C         142.5422  144.4962  163.3918 C.3     1  UNL1        0.1407
      6 O         143.5057  145.1977  162.4808 O.3     1  UNL1       -0.3817
      7 C         141.0651  144.6746  163.2020 C.3     1  UNL1        0.1031
      8 H         144.4142  144.9764  162.7388 H       1  UNL1        0.2105
      9 N         144.5333  143.4381  164.6826 N.3     1  UNL1       -0.2915
     10 H         144.7040  143.4454  165.6882 H       1  UNL1        0.1236
     11 C         145.2182  142.2206  164.1360 C.3     1  UNL1        0.1153
     12 C         144.7420  141.6042  162.8541 C.ar    1  UNL1        0.0782
     13 C         144.3239  140.1640  162.8242 C.ar    1  UNL1        0.0562
     14 C         143.8478  139.5477  161.5423 C.ar    1  UNL1        0.1752
     15 C         143.7898  140.3716  160.2901 C.ar    1  UNL1        0.1914
     16 C         144.2078  141.8118  160.3200 C.ar    1  UNL1        0.1384
     17 N         144.6840  142.4282  161.6020 N.ar    1  UNL1       -0.2434
     18 O         143.3136  139.7552  159.0082 O.3     1  UNL1       -0.4668
     19 C         142.8956  138.3150  158.9783 C.3     1  UNL1        0.2527
     20 C         142.9536  137.4911  160.2304 C.3     1  UNL1        0.2526
     21 O         143.4297  138.1074  161.5124 O.3     1  UNL1       -0.4683
     22 C         138.6245  144.1515  163.9231 C.3     1  UNL1        0.0970
     23 C         137.7079  142.9678  164.0171 C.3     1  UNL1        0.1264
     24 C         138.5425  139.0825  166.1285 C.ar    1  UNL1        0.1403
     25 C         138.8328  137.8442  165.3335 C.ar    1  UNL1        0.0385
     26 C         138.8449  137.9009  163.8346 C.ar    1  UNL1        0.0237
     27 C         138.5667  139.1959  163.1308 C.ar    1  UNL1        0.0975
     28 N         138.5787  139.2527  161.6319 N.ar    1  UNL1       -0.2374
     29 C         138.3006  140.5477  160.9281 C.ar    1  UNL1        0.1594
     30 C         138.0103  141.7862  161.7232 C.ar    1  UNL1        0.2803
     31 O         137.7321  143.0812  161.0194 O.2     1  UNL1       -0.2653
     32 N         137.9982  141.7295  163.2221 N.ar    1  UNL1       -0.2913
     33 C         138.2764  140.4343  163.9259 C.ar    1  UNL1        0.0832
     34 C         138.2643  140.3776  165.4247 C.ar    1  UNL1        0.0557
     35 C         139.3962  139.9595  168.4203 C.3     1  UNL1        0.2525
     36 O         138.5305  139.0258  167.6274 O.3     1  UNL1       -0.4714
@<TRIPOS>BOND
     1    35    36    1
     2    36    24    1
     3    24    25   ar
     4    25    26   ar
     5    26    27   ar
     6    27    28   ar
     7    28    29   ar
     8    29    30   ar
     9    30    31    2
    10    30    32   ar
    11    32    23    1
    12    23    22    1
    13    22     1    1
    14     1     2    1
    15     2     3    1
    16     3     4    1
    17     4     9    1
    18     9    11    1
    19    11    12    1
    20    12    13   ar
    21    13    14   ar
    22    14    15   ar
    23    15    16   ar
    24    16    17   ar
    25    15    18    1
    26    18    19    1
    27    19    20    1
    28    20    21    1
    29     4     5    1
    30     5     6    1
    31     5     7    1
    32    32    33   ar
    33    33    34   ar
    34    34    24   ar
    35    33    27   ar
    36     7     1    1
    37    17    12   ar
    38    21    14    1
    39     9    10    1
    40     6     8    1
@<TRIPOS>MOLECULE
*****
 36 40 0 0 0
SMALL
GASTEIGER

@<TRIPOS>ATOM
      1 N         141.7010  137.9569  164.0111 N.3     1  UNL1       -0.2689
      2 C         142.2917  138.4655  165.2926 C.3     1  UNL1        0.0737
      3 C         143.6117  139.1777  165.2793 C.3     1  UNL1        0.0356
      4 C         144.3410  139.3813  163.9845 C.3     1  UNL1        0.0843
      5 C         143.7503  138.8727  162.7029 C.3     1  UNL1        0.1407
      6 O         144.4796  139.0763  161.4081 O.3     1  UNL1       -0.3817
      7 C         142.4302  138.1605  162.7163 C.3     1  UNL1        0.1031
      8 H         145.3095  139.5499  161.5754 H       1  UNL1        0.2105
      9 N         145.6611  140.0935  163.9711 N.3     1  UNL1       -0.2915
     10 H         146.1836  139.7303  163.1740 H       1  UNL1        0.1236
     11 C         145.7052  141.5896  163.8723 C.3     1  UNL1        0.1153
     12 C         144.7621  142.3087  162.9539 C.ar    1  UNL1        0.0782
     13 C         143.6871  143.1878  163.5211 C.ar    1  UNL1        0.0562
     14 C         142.7440  143.9068  162.6028 C.ar    1  UNL1        0.1752
     15 C         142.8758  143.7468  161.1171 C.ar    1  UNL1        0.1914
     16 C         143.9508  142.8677  160.5499 C.ar    1  UNL1        0.1384
     17 N         144.8939  142.1487  161.4684 N.ar    1  UNL1       -0.2434
     18 O         141.9327  144.4659  160.1987 O.3     1  UNL1       -0.4668
     19 C         140.8578  145.3450  160.7659 C.3     1  UNL1        0.2527
     20 C         140.7259  145.5050  162.2515 C.3     1  UNL1        0.2526
     21 O         141.6691  144.7859  163.1699 O.3     1  UNL1       -0.4683
     22 C         140.3809  137.2446  164.0245 C.3     1  UNL1        0.0970
     23 C         139.1432  137.9674  164.4668 C.3     1  UNL1        0.1264
     24 C         140.0224  141.8632  166.5403 C.ar    1  UNL1        0.1403
     25 C         139.6396  143.1608  165.8924 C.ar    1  UNL1        0.0385
     26 C         138.9638  143.1597  164.5533 C.ar    1  UNL1        0.0237
     27 C         138.6707  141.8612  163.8621 C.ar    1  UNL1        0.0975
     28 N         137.9949  141.8601  162.5230 N.ar    1  UNL1       -0.2374
     29 C         137.7018  140.5616  161.8318 C.ar    1  UNL1        0.1594
     30 C         138.0845  139.2639  162.4797 C.ar    1  UNL1        0.2803
     31 O         137.7915  137.9654  161.7886 O.2     1  UNL1       -0.2653
     32 N         138.7604  139.2650  163.8189 N.ar    1  UNL1       -0.2913
     33 C         139.0535  140.5636  164.5100 C.ar    1  UNL1        0.0832
     34 C         139.7293  140.5647  165.8492 C.ar    1  UNL1        0.0557
     35 C         140.5462  143.0423  168.7954 C.3     1  UNL1        0.2525
     36 O         140.6983  141.8643  167.8795 O.3     1  UNL1       -0.4714
@<TRIPOS>BOND
     1    35    36    1
     2    36    24    1
     3    24    25   ar
     4    25    26   ar
     5    26    27   ar
     6    27    28   ar
     7    28    29   ar
     8    29    30   ar
     9    30    31    2
    10    30    32   ar
    11    32    23    1
    12    23    22    1
    13    22     1    1
    14     1     2    1
    15     2     3    1
    16     3     4    1
    17     4     9    1
    18     9    11    1
    19    11    12    1
    20    12    13   ar
    21    13    14   ar
    22    14    15   ar
    23    15    16   ar
    24    16    17   ar
    25    15    18    1
    26    18    19    1
    27    19    20    1
    28    20    21    1
    29     4     5    1
    30     5     6    1
    31     5     7    1
    32    32    33   ar
    33    33    34   ar
    34    34    24   ar
    35    33    27   ar
    36     7     1    1
    37    17    12   ar
    38    21    14    1
    39     9    10    1
    40     6     8    1
@<TRIPOS>MOLECULE
*****
 36 40 0 0 0
SMALL
GASTEIGER

@<TRIPOS>ATOM
      1 N         139.5397  143.6824  164.3876 N.3     1  UNL1       -0.2689
      2 C         140.0868  142.9326  165.5658 C.3     1  UNL1        0.0737
      3 C         139.5219  141.5914  165.9294 C.3     1  UNL1        0.0356
      4 C         138.4100  141.0001  165.1146 C.3     1  UNL1        0.0843
      5 C         137.8629  141.7500  163.9363 C.3     1  UNL1        0.1407
      6 O         136.7509  141.1587  163.1215 O.3     1  UNL1       -0.3817
      7 C         138.4278  143.0912  163.5728 C.3     1  UNL1        0.1031
      8 H         136.5049  140.2952  163.4886 H       1  UNL1        0.2105
      9 N         137.8451  139.6589  165.4781 N.3     1  UNL1       -0.2915
     10 H         136.9207  139.6030  165.0504 H       1  UNL1        0.1236
     11 C         138.5768  138.4075  165.0928 C.3     1  UNL1        0.1153
     12 C         139.3166  138.3423  163.7896 C.ar    1  UNL1        0.0782
     13 C         140.8067  138.1703  163.7809 C.ar    1  UNL1        0.0562
     14 C         141.5465  138.1051  162.4776 C.ar    1  UNL1        0.1752
     15 C         140.7962  138.2120  161.1831 C.ar    1  UNL1        0.1914
     16 C         139.3062  138.3841  161.1919 C.ar    1  UNL1        0.1384
     17 N         138.5664  138.4492  162.4952 N.ar    1  UNL1       -0.2434
     18 O         141.5360  138.1468  159.8799 O.3     1  UNL1       -0.4668
     19 C         143.0261  137.9748  159.8711 C.3     1  UNL1        0.2527
     20 C         143.7764  137.8679  161.1656 C.3     1  UNL1        0.2526
     21 O         143.0366  137.9330  162.4689 O.3     1  UNL1       -0.4683
     22 C         140.1046  145.0237  164.0240 C.3     1  UNL1        0.0970
     23 C         141.3775  145.1126  163.2355 C.3     1  UNL1        0.1264
     24 C         144.4930  142.4253  161.4129 C.ar    1  UNL1        0.1403
     25 C         144.4814  142.1568  159.9372 C.ar    1  UNL1        0.0385
     26 C         143.4313  142.7842  159.0690 C.ar    1  UNL1        0.0237
     27 C         142.3928  143.6799  159.6765 C.ar    1  UNL1        0.0975
     28 N         141.3427  144.3073  158.8083 N.ar    1  UNL1       -0.2374
     29 C         140.3042  145.2030  159.4158 C.ar    1  UNL1        0.1594
     30 C         140.3158  145.4715  160.8916 C.ar    1  UNL1        0.2803
     31 O         139.2773  146.3672  161.4991 O.2     1  UNL1       -0.2653
     32 N         141.3659  144.8442  161.7598 N.ar    1  UNL1       -0.2913
     33 C         142.4044  143.9484  161.1522 C.ar    1  UNL1        0.0832
     34 C         143.4545  143.3210  162.0204 C.ar    1  UNL1        0.0557
     35 C         145.4590  141.9285  163.7730 C.3     1  UNL1        0.2525
     36 O         145.5431  141.7979  162.2811 O.3     1  UNL1       -0.4714
@<TRIPOS>BOND
     1    35    36    1
     2    36    24    1
     3    24    25   ar
     4    25    26   ar
     5    26    27   ar
     6    27    28   ar
     7    28    29   ar
     8    29    30   ar
     9    30    31    2
    10    30    32   ar
    11    32    23    1
    12    23    22    1
    13    22     1    1
    14     1     2    1
    15     2     3    1
    16     3     4    1
    17     4     9    1
    18     9    11    1
    19    11    12    1
    20    12    13   ar
    21    13    14   ar
    22    14    15   ar
    23    15    16   ar
    24    16    17   ar
    25    15    18    1
    26    18    19    1
    27    19    20    1
    28    20    21    1
    29     4     5    1
    30     5     6    1
    31     5     7    1
    32    32    33   ar
    33    33    34   ar
    34    34    24   ar
    35    33    27   ar
    36     7     1    1
    37    17    12   ar
    38    21    14    1
    39     9    10    1
    40     6     8    1
@<TRIPOS>MOLECULE
*****
 36 40 0 0 0
SMALL
GASTEIGER

@<TRIPOS>ATOM
      1 N         143.1842  139.6832  161.6557 N.3     1  UNL1       -0.2689
      2 C         142.2412  140.1866  160.6034 C.3     1  UNL1        0.0737
      3 C         140.9186  139.5101  160.3958 C.3     1  UNL1        0.0356
      4 C         140.5390  138.3302  161.2405 C.3     1  UNL1        0.0843
      5 C         141.4820  137.8267  162.2928 C.3     1  UNL1        0.1407
      6 O         141.1023  136.6467  163.1376 O.3     1  UNL1       -0.3817
      7 C         142.8046  138.5032  162.5004 C.3     1  UNL1        0.1031
      8 H         140.2230  136.3315  162.8762 H       1  UNL1        0.2105
      9 N         139.2164  137.6536  161.0330 N.3     1  UNL1       -0.2915
     10 H         139.3521  136.6674  161.2551 H       1  UNL1        0.1236
     11 C         138.0121  138.1091  161.8024 C.3     1  UNL1        0.1153
     12 C         138.0760  139.3638  162.6218 C.ar    1  UNL1        0.0782
     13 C         137.8537  140.6969  161.9710 C.ar    1  UNL1        0.0562
     14 C         137.9177  141.9516  162.7904 C.ar    1  UNL1        0.1752
     15 C         138.2040  141.8733  164.2608 C.ar    1  UNL1        0.1914
     16 C         138.4264  140.5403  164.9117 C.ar    1  UNL1        0.1384
     17 N         138.3624  139.2856  164.0921 N.ar    1  UNL1       -0.2434
     18 O         138.2680  143.1281  165.0802 O.3     1  UNL1       -0.4668
     19 C         138.0456  144.4611  164.4294 C.3     1  UNL1        0.2527
     20 C         137.7593  144.5394  162.9591 C.3     1  UNL1        0.2526
     21 O         137.6953  143.2846  162.1395 O.3     1  UNL1       -0.4683
     22 C         144.5068  140.3597  161.8633 C.3     1  UNL1        0.0970
     23 C         144.7355  141.2009  163.0840 C.3     1  UNL1        0.1264
     24 C         142.6330  140.4181  166.9849 C.ar    1  UNL1        0.1403
     25 C         141.5630  141.3551  167.4613 C.ar    1  UNL1        0.0385
     26 C         141.1938  142.5531  166.6375 C.ar    1  UNL1        0.0237
     27 C         141.8946  142.8140  165.3373 C.ar    1  UNL1        0.0975
     28 N         141.5254  144.0119  164.5134 N.ar    1  UNL1       -0.2374
     29 C         142.2262  144.2728  163.2132 C.ar    1  UNL1        0.1594
     30 C         143.2963  143.3358  162.7367 C.ar    1  UNL1        0.2803
     31 O         143.9971  143.5967  161.4364 O.2     1  UNL1       -0.2653
     32 N         143.6655  142.1379  163.5605 N.ar    1  UNL1       -0.2913
     33 C         142.9646  141.8770  164.8608 C.ar    1  UNL1        0.0832
     34 C         143.3338  140.6791  165.6846 C.ar    1  UNL1        0.0557
     35 C         142.5709  139.1344  169.2428 C.3     1  UNL1        0.2525
     36 O         143.0022  139.2202  167.8087 O.3     1  UNL1       -0.4714
@<TRIPOS>BOND
     1    35    36    1
     2    36    24    1
     3    24    25   ar
     4    25    26   ar
     5    26    27   ar
     6    27    28   ar
     7    28    29   ar
     8    29    30   ar
     9    30    31    2
    10    30    32   ar
    11    32    23    1
    12    23    22    1
    13    22     1    1
    14     1     2    1
    15     2     3    1
    16     3     4    1
    17     4     9    1
    18     9    11    1
    19    11    12    1
    20    12    13   ar
    21    13    14   ar
    22    14    15   ar
    23    15    16   ar
    24    16    17   ar
    25    15    18    1
    26    18    19    1
    27    19    20    1
    28    20    21    1
    29     4     5    1
    30     5     6    1
    31     5     7    1
    32    32    33   ar
    33    33    34   ar
    34    34    24   ar
    35    33    27   ar
    36     7     1    1
    37    17    12   ar
    38    21    14    1
    39     9    10    1
    40     6     8    1
@<TRIPOS>MOLECULE
*****
 36 40 0 0 0
SMALL
GASTEIGER

@<TRIPOS>ATOM
      1 N         142.9836  144.0337  162.2339 N.3     1  UNL1       -0.2689
      2 C         142.4401  144.8941  163.3359 C.3     1  UNL1        0.0737
      3 C         140.9859  145.2612  163.3529 C.3     1  UNL1        0.0356
      4 C         140.0751  144.7680  162.2679 C.3     1  UNL1        0.0843
      5 C         140.6187  143.9077  161.1659 C.3     1  UNL1        0.1407
      6 O         139.7078  143.4145  160.0809 O.3     1  UNL1       -0.3817
      7 C         142.0729  143.5405  161.1489 C.3     1  UNL1        0.1031
      8 H         138.8083  143.7402  160.2409 H       1  UNL1        0.2105
      9 N         138.6208  145.1352  162.2849 N.3     1  UNL1       -0.2915
     10 H         138.2982  145.1049  161.3177 H       1  UNL1        0.1236
     11 C         137.6513  144.3219  163.0903 C.3     1  UNL1        0.1153
     12 C         137.8373  142.8386  163.2132 C.ar    1  UNL1        0.0782
     13 C         138.1614  142.2312  164.5459 C.ar    1  UNL1        0.0562
     14 C         138.3473  140.7479  164.6688 C.ar    1  UNL1        0.1752
     15 C         138.2091  139.8719  163.4589 C.ar    1  UNL1        0.1914
     16 C         137.8851  140.4793  162.1263 C.ar    1  UNL1        0.1384
     17 N         137.6991  141.9627  162.0034 N.ar    1  UNL1       -0.2434
     18 O         138.3951  138.3886  163.5818 O.3     1  UNL1       -0.4668
     19 C         138.7192  137.7812  164.9145 C.3     1  UNL1        0.2527
     20 C         138.8573  138.6571  166.1243 C.3     1  UNL1        0.2526
     21 O         138.6714  140.1405  166.0015 O.3     1  UNL1       -0.4683
     22 C         144.4380  143.6665  162.2170 C.3     1  UNL1        0.0970
     23 C         144.9196  142.4745  162.9897 C.3     1  UNL1        0.1264
     24 C         143.2266  139.0012  160.6831 C.ar    1  UNL1        0.1403
     25 C         142.2379  138.0796  161.3335 C.ar    1  UNL1        0.0385
     26 C         141.8135  138.3157  162.7527 C.ar    1  UNL1        0.0237
     27 C         142.3778  139.4734  163.5216 C.ar    1  UNL1        0.0975
     28 N         141.9534  139.7095  164.9408 N.ar    1  UNL1       -0.2374
     29 C         142.5177  140.8672  165.7096 C.ar    1  UNL1        0.1594
     30 C         143.5065  141.7889  165.0592 C.ar    1  UNL1        0.2803
     31 O         144.0708  142.9467  165.8281 O.2     1  UNL1       -0.2653
     32 N         143.9309  141.5528  163.6400 N.ar    1  UNL1       -0.2913
     33 C         143.3665  140.3950  162.8712 C.ar    1  UNL1        0.0832
     34 C         143.7909  140.1589  161.4520 C.ar    1  UNL1        0.0557
     35 C         142.7646  137.9893  158.3353 C.3     1  UNL1        0.2525
     36 O         143.6510  138.7651  159.2639 O.3     1  UNL1       -0.4714
@<TRIPOS>BOND
     1    35    36    1
     2    36    24    1
     3    24    25   ar
     4    25    26   ar
     5    26    27   ar
     6    27    28   ar
     7    28    29   ar
     8    29    30   ar
     9    30    31    2
    10    30    32   ar
    11    32    23    1
    12    23    22    1
    13    22     1    1
    14     1     2    1
    15     2     3    1
    16     3     4    1
    17     4     9    1
    18     9    11    1
    19    11    12    1
    20    12    13   ar
    21    13    14   ar
    22    14    15   ar
    23    15    16   ar
    24    16    17   ar
    25    15    18    1
    26    18    19    1
    27    19    20    1
    28    20    21    1
    29     4     5    1
    30     5     6    1
    31     5     7    1
    32    32    33   ar
    33    33    34   ar
    34    34    24   ar
    35    33    27   ar
    36     7     1    1
    37    17    12   ar
    38    21    14    1
    39     9    10    1
    40     6     8    1
@<TRIPOS>MOLECULE
*****
 36 40 0 0 0
SMALL
GASTEIGER

@<TRIPOS>ATOM
      1 N         138.7815  144.1969  163.0383 N.3     1  UNL1       -0.2689
      2 C         139.2012  143.9341  164.4543 C.3     1  UNL1        0.0737
      3 C         138.8596  142.6278  165.1076 C.3     1  UNL1        0.0356
      4 C         138.0984  141.5843  164.3451 C.3     1  UNL1        0.0843
      5 C         137.6787  141.8471  162.9292 C.3     1  UNL1        0.1407
      6 O         136.9174  140.8035  162.1666 O.3     1  UNL1       -0.3817
      7 C         138.0203  143.1534  162.2758 C.3     1  UNL1        0.1031
      8 H         136.7808  140.0263  162.7307 H       1  UNL1        0.2105
      9 N         137.7567  140.2780  164.9985 N.3     1  UNL1       -0.2915
     10 H         137.0091  139.8589  164.4456 H       1  UNL1        0.1236
     11 C         138.8121  139.2256  165.1680 C.3     1  UNL1        0.1153
     12 C         139.8897  139.4029  166.1962 C.ar    1  UNL1        0.0782
     13 C         139.5426  139.8990  167.5685 C.ar    1  UNL1        0.0562
     14 C         140.6202  140.0763  168.5968 C.ar    1  UNL1        0.1752
     15 C         142.0450  139.7574  168.2526 C.ar    1  UNL1        0.1914
     16 C         142.3921  139.2612  166.8803 C.ar    1  UNL1        0.1384
     17 N         141.3144  139.0840  165.8520 N.ar    1  UNL1       -0.2434
     18 O         143.1226  139.9346  169.2809 O.3     1  UNL1       -0.4668
     19 C         142.7756  140.4308  170.6532 C.3     1  UNL1        0.2527
     20 C         141.3509  140.7497  170.9974 C.3     1  UNL1        0.2526
     21 O         140.2731  140.5724  169.9691 O.3     1  UNL1       -0.4683
     22 C         139.1232  145.5032  162.3850 C.3     1  UNL1        0.0970
     23 C         140.5545  145.8446  162.0942 C.3     1  UNL1        0.1264
     24 C         143.9648  143.4920  163.8508 C.ar    1  UNL1        0.1403
     25 C         144.7867  142.5944  162.9741 C.ar    1  UNL1        0.0385
     26 C         144.4720  142.4810  161.5119 C.ar    1  UNL1        0.0237
     27 C         143.3353  143.2652  160.9263 C.ar    1  UNL1        0.0975
     28 N         143.0205  143.1517  159.4641 N.ar    1  UNL1       -0.2374
     29 C         141.8838  143.9359  158.8786 C.ar    1  UNL1        0.1594
     30 C         141.0618  144.8336  159.7553 C.ar    1  UNL1        0.2803
     31 O         139.9250  145.6178  159.1698 O.2     1  UNL1       -0.2653
     32 N         141.3765  144.9470  161.2175 N.ar    1  UNL1       -0.2913
     33 C         142.5133  144.1628  161.8030 C.ar    1  UNL1        0.0832
     34 C         142.8280  144.2762  163.2652 C.ar    1  UNL1        0.0557
     35 C         143.5855  142.7153  166.3008 C.3     1  UNL1        0.2525
     36 O         144.2795  143.6055  165.3130 O.3     1  UNL1       -0.4714
@<TRIPOS>BOND
     1    35    36    1
     2    36    24    1
     3    24    25   ar
     4    25    26   ar
     5    26    27   ar
     6    27    28   ar
     7    28    29   ar
     8    29    30   ar
     9    30    31    2
    10    30    32   ar
    11    32    23    1
    12    23    22    1
    13    22     1    1
    14     1     2    1
    15     2     3    1
    16     3     4    1
    17     4     9    1
    18     9    11    1
    19    11    12    1
    20    12    13   ar
    21    13    14   ar
    22    14    15   ar
    23    15    16   ar
    24    16    17   ar
    25    15    18    1
    26    18    19    1
    27    19    20    1
    28    20    21    1
    29     4     5    1
    30     5     6    1
    31     5     7    1
    32    32    33   ar
    33    33    34   ar
    34    34    24   ar
    35    33    27   ar
    36     7     1    1
    37    17    12   ar
    38    21    14    1
    39     9    10    1
    40     6     8    1
@<TRIPOS>MOLECULE
*****
 36 40 0 0 0
SMALL
GASTEIGER

@<TRIPOS>ATOM
      1 N         137.8886  142.9449  162.8325 N.3     1  UNL1       -0.2689
      2 C         137.7066  141.8243  163.8128 C.3     1  UNL1        0.0737
      3 C         137.7248  140.4017  163.3376 C.3     1  UNL1        0.0356
      4 C         137.9250  140.0998  161.8820 C.3     1  UNL1        0.0843
      5 C         138.1070  141.2204  160.9017 C.3     1  UNL1        0.1407
      6 O         138.3072  140.9184  159.4460 O.3     1  UNL1       -0.3817
      7 C         138.0888  142.6430  161.3769 C.3     1  UNL1        0.1031
      8 H         138.2927  139.9581  159.3101 H       1  UNL1        0.2105
      9 N         137.9432  138.6771  161.4067 N.3     1  UNL1       -0.2915
     10 H         137.3843  138.6444  160.5541 H       1  UNL1        0.1236
     11 C         139.2486  138.0073  161.0948 C.3     1  UNL1        0.1153
     12 C         140.4301  138.2107  161.9961 C.ar    1  UNL1        0.0782
     13 C         141.4825  139.2176  161.6375 C.ar    1  UNL1        0.0562
     14 C         142.6641  139.4210  162.5388 C.ar    1  UNL1        0.1752
     15 C         142.7933  138.6174  163.7989 C.ar    1  UNL1        0.1914
     16 C         141.7409  137.6106  164.1576 C.ar    1  UNL1        0.1384
     17 N         140.5593  137.4072  163.2561 N.ar    1  UNL1       -0.2434
     18 O         143.9749  138.8208  164.7003 O.3     1  UNL1       -0.4668
     19 C         145.0273  139.8277  164.3416 C.3     1  UNL1        0.2527
     20 C         144.8981  140.6312  163.0816 C.3     1  UNL1        0.2526
     21 O         143.7165  140.4279  162.1802 O.3     1  UNL1       -0.4683
     22 C         137.8704  144.3676  163.3078 C.3     1  UNL1        0.0970
     23 C         138.8955  144.8417  164.2949 C.3     1  UNL1        0.1264
     24 C         141.0187  142.2286  167.2806 C.ar    1  UNL1        0.1403
     25 C         142.4655  141.8861  167.0823 C.ar    1  UNL1        0.0385
     26 C         143.2046  142.4147  165.8888 C.ar    1  UNL1        0.0237
     27 C         142.4969  143.2856  164.8936 C.ar    1  UNL1        0.0975
     28 N         143.2360  143.8142  163.7001 N.ar    1  UNL1       -0.2374
     29 C         142.5283  144.6852  162.7049 C.ar    1  UNL1        0.1594
     30 C         141.0814  145.0277  162.9032 C.ar    1  UNL1        0.2803
     31 O         140.3737  145.8987  161.9080 O.2     1  UNL1       -0.2653
     32 N         140.3423  144.4992  164.0967 N.ar    1  UNL1       -0.2913
     33 C         141.0501  143.6281  165.0919 C.ar    1  UNL1        0.0832
     34 C         140.3110  143.0996  166.2854 C.ar    1  UNL1        0.0557
     35 C         139.8803  140.2553  168.5296 C.3     1  UNL1        0.2525
     36 O         140.2796  141.7001  168.4740 O.3     1  UNL1       -0.4714
@<TRIPOS>BOND
     1    35    36    1
     2    36    24    1
     3    24    25   ar
     4    25    26   ar
     5    26    27   ar
     6    27    28   ar
     7    28    29   ar
     8    29    30   ar
     9    30    31    2
    10    30    32   ar
    11    32    23    1
    12    23    22    1
    13    22     1    1
    14     1     2    1
    15     2     3    1
    16     3     4    1
    17     4     9    1
    18     9    11    1
    19    11    12    1
    20    12    13   ar
    21    13    14   ar
    22    14    15   ar
    23    15    16   ar
    24    16    17   ar
    25    15    18    1
    26    18    19    1
    27    19    20    1
    28    20    21    1
    29     4     5    1
    30     5     6    1
    31     5     7    1
    32    32    33   ar
    33    33    34   ar
    34    34    24   ar
    35    33    27   ar
    36     7     1    1
    37    17    12   ar
    38    21    14    1
    39     9    10    1
    40     6     8    1
