@<TRIPOS>MOLECULE
*****
 37 40 0 0 0
SMALL
GASTEIGER

@<TRIPOS>ATOM
      1 C         141.2496  139.9637  164.4384 C.2     1  UNL1        0.1397
      2 C         141.3356  140.0777  162.9453 C.2     1  UNL1        0.1355
      3 N         141.0486  141.3887  162.2754 N.pl3   1  UNL1       -0.1998
      4 C         140.6756  142.5858  163.0986 C.2     1  UNL1        0.3442
      5 N         140.5895  142.4718  164.5918 N.2     1  UNL1       -0.0580
      6 C         140.8765  141.1608  165.2617 C.3     1  UNL1        0.2692
      7 H         141.1051  141.4635  161.2953 H       1  UNL1        0.2983
      8 C         140.7905  141.0468  166.7549 C.ar    1  UNL1        0.0371
      9 C         139.5818  140.4271  167.3914 C.ar    1  UNL1        0.0030
     10 C         139.4957  140.3132  168.8845 C.ar    1  UNL1        0.0295
     11 C         140.6183  140.8190  169.7413 C.ar    1  UNL1        0.1406
     12 F         140.5322  140.7050  171.2345 F       1  UNL1       -0.2042
     13 C         141.8270  141.4387  169.1049 C.ar    1  UNL1        0.0362
     14 C         141.9130  141.5526  167.6116 C.ar    1  UNL1        0.0372
     15 BR        143.1217  142.1723  166.9752 Br      1  UNL1       -0.0491
     16 C         140.3885  143.8968  162.4287 C.ar    1  UNL1        0.1931
     17 N         139.7107  145.0782  163.0570 N.ar    1  UNL1       -0.2297
     18 C         139.6322  146.1682  162.0295 C.ar    1  UNL1        0.1067
     19 C         140.2616  145.6605  160.7661 C.ar    1  UNL1        0.0577
     20 S         140.7290  144.2567  161.0129 S.2     1  UNL1       -0.0586
     21 C         141.5366  138.6526  165.1083 C.2     1  UNL1        0.3447
     22 O         142.7989  138.4748  165.8989 O.2     1  UNL1       -0.2450
     23 O         140.5613  137.5194  164.9877 O.3     1  UNL1       -0.4455
     24 C         138.1781  137.4348  166.0188 C.3     1  UNL1        0.0513
     25 C         139.0917  137.8022  164.8872 C.3     1  UNL1        0.2089
     26 C         141.7087  138.8805  162.1219 C.3     1  UNL1        0.1404
     27 N         141.3886  138.8486  160.6569 N.3     1  UNL1       -0.2628
     28 C         142.4414  139.2090  159.6511 C.3     1  UNL1        0.1049
     29 C         142.1213  139.1771  158.1860 C.3     1  UNL1        0.1595
     30 O         140.7483  138.7847  157.7267 O.3     1  UNL1       -0.3509
     31 C         139.6955  138.4243  158.7325 C.3     1  UNL1        0.1580
     32 C         140.0156  138.4562  160.1975 C.3     1  UNL1        0.0880
     33 C         138.9627  138.0958  161.2033 C.3     1  UNL1        0.0244
     34 C         137.7261  138.9355  161.3283 C.3     1  UNL1        0.0432
     35 C         137.8237  140.3432  161.8369 C.2     1  UNL1        0.0504
     36 O         137.5710  140.6363  163.2861 O.co2   1  UNL1       -0.5492
     37 O         138.1739  141.4579  160.8963 O.co2   1  UNL1       -0.5492
@<TRIPOS>UNITY_ATOM_ATTR
36 1
charge -1
@<TRIPOS>BOND
     1    24    25    1
     2    25    23    1
     3    23    21    1
     4    21    22    2
     5    21     1    1
     6     1     2    2
     7     2    26    1
     8    26    27    1
     9    27    28    1
    10    28    29    1
    11    29    30    1
    12    30    31    1
    13    31    32    1
    14    32    33    1
    15    33    34    1
    16    34    35    1
    17    35    36   ar
    18    35    37   ar
    19     2     3    1
    20     3     4    1
    21     4    16    1
    22    16    17   ar
    23    17    18   ar
    24    18    19   ar
    25    19    20   ar
    26     4     5    2
    27     5     6    1
    28     6     8    1
    29     8     9   ar
    30     9    10   ar
    31    10    11   ar
    32    11    12    1
    33    11    13   ar
    34    13    14   ar
    35    14    15    1
    36     6     1    1
    37    14     8   ar
    38    32    27    1
    39    20    16   ar
    40     3     7    1
@<TRIPOS>MOLECULE
*****
 37 40 0 0 0
SMALL
GASTEIGER

@<TRIPOS>ATOM
      1 C         141.2119  139.8865  164.1746 C.2     1  UNL1        0.1397
      2 C         141.3744  140.0703  162.6948 C.2     1  UNL1        0.1355
      3 N         141.1018  141.4067  162.0706 N.pl3   1  UNL1       -0.1998
      4 C         140.6668  142.5594  162.9262 C.2     1  UNL1        0.3442
      5 N         140.5043  142.3755  164.4060 N.2     1  UNL1       -0.0580
      6 C         140.7769  141.0391  165.0302 C.3     1  UNL1        0.2692
      7 H         141.2085  141.5274  161.0994 H       1  UNL1        0.2983
      8 C         140.6144  140.8553  166.5100 C.ar    1  UNL1        0.0371
      9 C         139.4131  140.1367  167.0491 C.ar    1  UNL1        0.0030
     10 C         139.2506  139.9529  168.5288 C.ar    1  UNL1        0.0295
     11 C         140.2893  140.4877  169.4696 C.ar    1  UNL1        0.1406
     12 F         140.1268  140.3039  170.9494 F       1  UNL1       -0.2042
     13 C         141.4906  141.2063  168.9306 C.ar    1  UNL1        0.0362
     14 C         141.6531  141.3901  167.4507 C.ar    1  UNL1        0.0372
     15 BR        142.8543  142.1088  166.9117 Br      1  UNL1       -0.0491
     16 C         140.3942  143.8958  162.3021 C.ar    1  UNL1        0.1931
     17 N         139.7348  145.0642  162.9729 N.ar    1  UNL1       -0.2297
     18 C         139.6662  146.1891  161.9829 C.ar    1  UNL1        0.1067
     19 C         140.2833  145.7159  160.7002 C.ar    1  UNL1        0.0577
     20 S         140.7331  144.2986  160.8975 S.2     1  UNL1       -0.0586
     21 C         141.4845  138.5500  164.7987 C.2     1  UNL1        0.3447
     22 O         140.3547  137.5968  165.0536 O.2     1  UNL1       -0.2450
     23 O         142.8869  138.1667  165.1680 O.3     1  UNL1       -0.4455
     24 C         144.9053  139.4285  164.1269 C.3     1  UNL1        0.0513
     25 C         143.9511  139.2193  165.2653 C.3     1  UNL1        0.2089
     26 C         141.8095  138.9176  161.8391 C.3     1  UNL1        0.1404
     27 N         141.4368  138.8791  160.3867 N.3     1  UNL1       -0.2628
     28 C         142.4523  139.2363  159.3421 C.3     1  UNL1        0.1049
     29 C         142.0795  139.1979  157.8896 C.3     1  UNL1        0.1595
     30 O         140.6914  138.8022  157.4818 O.3     1  UNL1       -0.3509
     31 C         139.6759  138.4450  158.5264 C.3     1  UNL1        0.1580
     32 C         140.0486  138.4834  159.9788 C.3     1  UNL1        0.0880
     33 C         139.0331  138.1262  161.0234 C.3     1  UNL1        0.0244
     34 C         137.7718  138.9284  161.1486 C.3     1  UNL1        0.0432
     35 C         137.8274  140.3389  161.6559 C.2     1  UNL1        0.0504
     36 O         137.5074  140.6328  163.0916 O.co2   1  UNL1       -0.5492
     37 O         138.2028  141.4556  160.7275 O.co2   1  UNL1       -0.5492
@<TRIPOS>UNITY_ATOM_ATTR
36 1
charge -1
@<TRIPOS>BOND
     1    24    25    1
     2    25    23    1
     3    23    21    1
     4    21    22    2
     5    21     1    1
     6     1     2    2
     7     2    26    1
     8    26    27    1
     9    27    28    1
    10    28    29    1
    11    29    30    1
    12    30    31    1
    13    31    32    1
    14    32    33    1
    15    33    34    1
    16    34    35    1
    17    35    36   ar
    18    35    37   ar
    19     2     3    1
    20     3     4    1
    21     4    16    1
    22    16    17   ar
    23    17    18   ar
    24    18    19   ar
    25    19    20   ar
    26     4     5    2
    27     5     6    1
    28     6     8    1
    29     8     9   ar
    30     9    10   ar
    31    10    11   ar
    32    11    12    1
    33    11    13   ar
    34    13    14   ar
    35    14    15    1
    36     6     1    1
    37    14     8   ar
    38    32    27    1
    39    20    16   ar
    40     3     7    1
@<TRIPOS>MOLECULE
*****
 37 40 0 0 0
SMALL
GASTEIGER

@<TRIPOS>ATOM
      1 C         140.8749  140.2644  164.6158 C.2     1  UNL1        0.1397
      2 C         140.6673  140.1788  163.1327 C.2     1  UNL1        0.1355
      3 N         140.4619  141.4297  162.3307 N.pl3   1  UNL1       -0.1998
      4 C         140.4641  142.7661  163.0118 C.2     1  UNL1        0.3442
      5 N         140.6717  142.8516  164.4949 N.2     1  UNL1       -0.0580
      6 C         140.8771  141.6008  165.2969 C.3     1  UNL1        0.2692
      7 H         140.3257  141.3735  161.3573 H       1  UNL1        0.2983
      8 C         141.0846  141.6864  166.7800 C.ar    1  UNL1        0.0371
      9 C         139.9553  141.3692  167.7149 C.ar    1  UNL1        0.0030
     10 C         140.1628  141.4548  169.1980 C.ar    1  UNL1        0.0295
     11 C         141.4998  141.8576  169.7463 C.ar    1  UNL1        0.1406
     12 F         141.7073  141.9432  171.2293 F       1  UNL1       -0.2042
     13 C         142.6291  142.1748  168.8114 C.ar    1  UNL1        0.0362
     14 C         142.4215  142.0891  167.3282 C.ar    1  UNL1        0.0372
     15 BR        143.5508  142.4063  166.3933 Br      1  UNL1       -0.0491
     16 C         140.2587  144.0170  162.2099 C.ar    1  UNL1        0.1931
     17 N         139.6446  145.2921  162.7068 N.ar    1  UNL1       -0.2297
     18 C         139.6377  146.2755  161.5742 C.ar    1  UNL1        0.1067
     19 C         140.2476  145.6082  160.3772 C.ar    1  UNL1        0.0577
     20 S         140.6313  144.2124  160.7701 S.2     1  UNL1       -0.0586
     21 C         141.0803  139.0135  165.4178 C.2     1  UNL1        0.3447
     22 O         142.4453  138.6710  165.9367 O.2     1  UNL1       -0.2450
     23 O         139.9206  138.1052  165.7008 O.3     1  UNL1       -0.4455
     24 C         137.6868  138.5560  166.9486 C.3     1  UNL1        0.0513
     25 C         138.5239  138.6520  165.7075 C.3     1  UNL1        0.2089
     26 C         140.6651  138.8423  162.4515 C.3     1  UNL1        0.1404
     27 N         140.8219  138.7594  160.9621 N.3     1  UNL1       -0.2628
     28 C         139.6132  138.5975  160.0886 C.3     1  UNL1        0.1049
     29 C         139.7700  138.5146  158.5991 C.3     1  UNL1        0.1595
     30 O         141.1354  138.5936  157.9831 O.3     1  UNL1       -0.3509
     31 C         142.3440  138.7556  158.8566 C.3     1  UNL1        0.1580
     32 C         142.1873  138.8385  160.3460 C.3     1  UNL1        0.0880
     33 C         143.3959  139.0004  161.2195 C.3     1  UNL1        0.0244
     34 C         143.9479  140.3686  161.4900 C.3     1  UNL1        0.0432
     35 C         144.8283  140.5999  162.6822 C.2     1  UNL1        0.0504
     36 O         144.6918  139.7288  163.8957 O.co2   1  UNL1       -0.5492
     37 O         145.8453  141.7024  162.6610 O.co2   1  UNL1       -0.5492
@<TRIPOS>UNITY_ATOM_ATTR
36 1
charge -1
@<TRIPOS>BOND
     1    24    25    1
     2    25    23    1
     3    23    21    1
     4    21    22    2
     5    21     1    1
     6     1     2    2
     7     2    26    1
     8    26    27    1
     9    27    28    1
    10    28    29    1
    11    29    30    1
    12    30    31    1
    13    31    32    1
    14    32    33    1
    15    33    34    1
    16    34    35    1
    17    35    36   ar
    18    35    37   ar
    19     2     3    1
    20     3     4    1
    21     4    16    1
    22    16    17   ar
    23    17    18   ar
    24    18    19   ar
    25    19    20   ar
    26     4     5    2
    27     5     6    1
    28     6     8    1
    29     8     9   ar
    30     9    10   ar
    31    10    11   ar
    32    11    12    1
    33    11    13   ar
    34    13    14   ar
    35    14    15    1
    36     6     1    1
    37    14     8   ar
    38    32    27    1
    39    20    16   ar
    40     3     7    1
@<TRIPOS>MOLECULE
*****
 37 40 0 0 0
SMALL
GASTEIGER

@<TRIPOS>ATOM
      1 C         140.5779  140.9054  161.5288 C.2     1  UNL1        0.1397
      2 C         139.8804  141.2878  160.2571 C.2     1  UNL1        0.1355
      3 N         139.9472  140.3820  159.0634 N.pl3   1  UNL1       -0.1998
      4 C         140.7115  139.0937  159.1413 C.2     1  UNL1        0.3442
      5 N         141.4090  138.7113  160.4130 N.2     1  UNL1       -0.0580
      6 C         141.3422  139.6172  161.6067 C.3     1  UNL1        0.2692
      7 H         139.4894  140.6330  158.2287 H       1  UNL1        0.2983
      8 C         142.0398  139.2347  162.8784 C.ar    1  UNL1        0.0371
      9 C         141.2991  138.4801  163.9424 C.ar    1  UNL1        0.0030
     10 C         141.9966  138.0976  165.2141 C.ar    1  UNL1        0.0295
     11 C         143.4348  138.4698  165.4218 C.ar    1  UNL1        0.1406
     12 F         144.1323  138.0873  166.6935 F       1  UNL1       -0.2042
     13 C         144.1755  139.2244  164.3579 C.ar    1  UNL1        0.0362
     14 C         143.4779  139.6069  163.0862 C.ar    1  UNL1        0.0372
     15 BR        144.2186  140.3615  162.0222 Br      1  UNL1       -0.0491
     16 C         140.7784  138.1878  157.9476 C.ar    1  UNL1        0.1931
     17 N         139.6153  137.7467  157.1094 N.ar    1  UNL1       -0.2297
     18 C         140.1381  136.8503  156.0262 C.ar    1  UNL1        0.1067
     19 C         141.6243  136.7374  156.1951 C.ar    1  UNL1        0.0577
     20 S         142.0200  137.5641  157.3826 S.2     1  UNL1       -0.0586
     21 C         140.5110  141.8113  162.7225 C.2     1  UNL1        0.3447
     22 O         141.6958  142.6538  163.0919 O.2     1  UNL1       -0.2450
     23 O         139.2595  141.8746  163.5468 O.3     1  UNL1       -0.4455
     24 C         138.2135  140.0733  165.0996 C.3     1  UNL1        0.0513
     25 C         138.4181  140.6462  163.7285 C.3     1  UNL1        0.2089
     26 C         139.1160  142.5761  160.1791 C.3     1  UNL1        0.1404
     27 N         139.3934  143.5469  159.0698 N.3     1  UNL1       -0.2628
     28 C         138.8688  143.2792  157.6902 C.3     1  UNL1        0.1049
     29 C         139.1463  144.2500  156.5809 C.3     1  UNL1        0.1595
     30 O         139.9484  145.4884  156.8511 O.3     1  UNL1       -0.3509
     31 C         140.4731  145.7560  158.2306 C.3     1  UNL1        0.1580
     32 C         140.1956  144.7853  159.3400 C.3     1  UNL1        0.0880
     33 C         140.7202  145.0529  160.7195 C.3     1  UNL1        0.0244
     34 C         139.9347  145.9098  161.6675 C.3     1  UNL1        0.0432
     35 C         139.1390  145.2746  162.7690 C.2     1  UNL1        0.0504
     36 O         137.7524  144.7707  162.4980 O.co2   1  UNL1       -0.5492
     37 O         139.7298  145.1432  164.1414 O.co2   1  UNL1       -0.5492
@<TRIPOS>UNITY_ATOM_ATTR
36 1
charge -1
@<TRIPOS>BOND
     1    24    25    1
     2    25    23    1
     3    23    21    1
     4    21    22    2
     5    21     1    1
     6     1     2    2
     7     2    26    1
     8    26    27    1
     9    27    28    1
    10    28    29    1
    11    29    30    1
    12    30    31    1
    13    31    32    1
    14    32    33    1
    15    33    34    1
    16    34    35    1
    17    35    36   ar
    18    35    37   ar
    19     2     3    1
    20     3     4    1
    21     4    16    1
    22    16    17   ar
    23    17    18   ar
    24    18    19   ar
    25    19    20   ar
    26     4     5    2
    27     5     6    1
    28     6     8    1
    29     8     9   ar
    30     9    10   ar
    31    10    11   ar
    32    11    12    1
    33    11    13   ar
    34    13    14   ar
    35    14    15    1
    36     6     1    1
    37    14     8   ar
    38    32    27    1
    39    20    16   ar
    40     3     7    1
@<TRIPOS>MOLECULE
*****
 37 40 0 0 0
SMALL
GASTEIGER

@<TRIPOS>ATOM
      1 C         140.5777  141.2726  161.1237 C.2     1  UNL1        0.1397
      2 C         140.8279  140.4537  159.8922 C.2     1  UNL1        0.1355
      3 N         139.8884  140.5460  158.7264 N.pl3   1  UNL1       -0.1998
      4 C         138.6988  141.4573  158.7922 C.2     1  UNL1        0.3442
      5 N         138.4487  142.2762  160.0237 N.2     1  UNL1       -0.0580
      6 C         139.3881  142.1838  161.1895 C.3     1  UNL1        0.2692
      7 H         140.0527  140.0085  157.9181 H       1  UNL1        0.2983
      8 C         139.1378  143.0028  162.4211 C.ar    1  UNL1        0.0371
      9 C         139.8741  144.2935  162.6258 C.ar    1  UNL1        0.0030
     10 C         139.6239  145.1125  163.8573 C.ar    1  UNL1        0.0295
     11 C         138.6374  144.6407  164.8842 C.ar    1  UNL1        0.1406
     12 F         138.3872  145.4597  166.1157 F       1  UNL1       -0.2042
     13 C         137.9011  143.3500  164.6794 C.ar    1  UNL1        0.0362
     14 C         138.1514  142.5310  163.4478 C.ar    1  UNL1        0.0372
     15 BR        137.4151  141.2403  163.2431 Br      1  UNL1       -0.0491
     16 C         137.7594  141.5497  157.6264 C.ar    1  UNL1        0.1931
     17 N         136.7533  140.5138  157.2206 N.ar    1  UNL1       -0.2297
     18 C         136.0333  141.0180  156.0052 C.ar    1  UNL1        0.1067
     19 C         136.5944  142.3656  155.6598 C.ar    1  UNL1        0.0577
     20 S         137.6612  142.6941  156.6618 S.2     1  UNL1       -0.0586
     21 C         141.5171  141.1802  162.2894 C.2     1  UNL1        0.3447
     22 O         142.6714  142.1317  162.3997 O.2     1  UNL1       -0.2450
     23 O         141.3022  140.1363  163.3449 O.3     1  UNL1       -0.4455
     24 C         140.8564  137.6173  162.8909 C.3     1  UNL1        0.0513
     25 C         140.3415  139.0104  163.1016 C.3     1  UNL1        0.2089
     26 C         142.0175  139.5423  159.8263 C.3     1  UNL1        0.1404
     27 N         142.7983  139.4192  158.5515 N.3     1  UNL1       -0.2628
     28 C         142.5413  138.2698  157.6226 C.3     1  UNL1        0.1049
     29 C         143.3222  138.1468  156.3478 C.3     1  UNL1        0.1595
     30 O         144.3600  139.1730  156.0019 O.3     1  UNL1       -0.3509
     31 C         144.6170  140.3224  156.9308 C.3     1  UNL1        0.1580
     32 C         143.8362  140.4455  158.2056 C.3     1  UNL1        0.0880
     33 C         144.0932  141.5949  159.1345 C.3     1  UNL1        0.0244
     34 C         143.8301  142.9999  158.6800 C.3     1  UNL1        0.0432
     35 C         142.4773  143.6141  158.8868 C.2     1  UNL1        0.0504
     36 O         142.2389  144.5286  160.0516 O.co2   1  UNL1       -0.5492
     37 O         141.3629  143.3138  157.9288 O.co2   1  UNL1       -0.5492
@<TRIPOS>UNITY_ATOM_ATTR
36 1
charge -1
@<TRIPOS>BOND
     1    24    25    1
     2    25    23    1
     3    23    21    1
     4    21    22    2
     5    21     1    1
     6     1     2    2
     7     2    26    1
     8    26    27    1
     9    27    28    1
    10    28    29    1
    11    29    30    1
    12    30    31    1
    13    31    32    1
    14    32    33    1
    15    33    34    1
    16    34    35    1
    17    35    36   ar
    18    35    37   ar
    19     2     3    1
    20     3     4    1
    21     4    16    1
    22    16    17   ar
    23    17    18   ar
    24    18    19   ar
    25    19    20   ar
    26     4     5    2
    27     5     6    1
    28     6     8    1
    29     8     9   ar
    30     9    10   ar
    31    10    11   ar
    32    11    12    1
    33    11    13   ar
    34    13    14   ar
    35    14    15    1
    36     6     1    1
    37    14     8   ar
    38    32    27    1
    39    20    16   ar
    40     3     7    1
@<TRIPOS>MOLECULE
*****
 37 40 0 0 0
SMALL
GASTEIGER

@<TRIPOS>ATOM
      1 C         139.2864  141.0721  160.9168 C.2     1  UNL1        0.1397
      2 C         139.3649  140.3490  159.6049 C.2     1  UNL1        0.1355
      3 N         139.0742  141.0794  158.3274 N.pl3   1  UNL1       -0.1998
      4 C         138.7050  142.5328  158.3617 C.2     1  UNL1        0.3442
      5 N         138.6265  143.2558  159.6735 N.2     1  UNL1       -0.0580
      6 C         138.9172  142.5255  160.9511 C.3     1  UNL1        0.2692
      7 H         139.1257  140.6048  157.4664 H       1  UNL1        0.2983
      8 C         138.8387  143.2487  162.2629 C.ar    1  UNL1        0.0371
      9 C         137.5866  143.1757  163.0858 C.ar    1  UNL1        0.0030
     10 C         137.5081  143.8988  164.3976 C.ar    1  UNL1        0.0295
     11 C         138.6816  144.6949  164.8866 C.ar    1  UNL1        0.1406
     12 F         138.6031  145.4180  166.1985 F       1  UNL1       -0.2042
     13 C         139.9337  144.7679  164.0638 C.ar    1  UNL1        0.0362
     14 C         140.0122  144.0447  162.7519 C.ar    1  UNL1        0.0372
     15 BR        141.2642  144.1177  161.9291 Br      1  UNL1       -0.0491
     16 C         138.4143  143.2631  157.0842 C.ar    1  UNL1        0.1931
     17 N         137.1445  143.1795  156.2900 N.ar    1  UNL1       -0.2297
     18 C         137.2877  144.0700  155.0915 C.ar    1  UNL1        0.1067
     19 C         138.6461  144.7041  155.1449 C.ar    1  UNL1        0.0577
     20 S         139.3423  144.2054  156.3764 S.2     1  UNL1       -0.0586
     21 C         139.5771  140.3417  162.1943 C.2     1  UNL1        0.3447
     22 O         140.9443  140.4167  162.8066 O.2     1  UNL1       -0.2450
     23 O         138.5006  139.5364  162.8595 O.3     1  UNL1       -0.4455
     24 C         139.2103  137.7509  164.6083 C.3     1  UNL1        0.0513
     25 C         138.7527  138.1034  163.2239 C.3     1  UNL1        0.2089
     26 C         139.7341  138.8955  159.5706 C.3     1  UNL1        0.1404
     27 N         140.5267  138.3500  158.4199 N.3     1  UNL1       -0.2628
     28 C         139.8275  137.6514  157.2917 C.3     1  UNL1        0.1049
     29 C         140.6202  137.1059  156.1409 C.3     1  UNL1        0.1595
     30 O         142.1122  137.2591  156.1185 O.3     1  UNL1       -0.3509
     31 C         142.8115  137.9577  157.2468 C.3     1  UNL1        0.1580
     32 C         142.0188  138.5032  158.3974 C.3     1  UNL1        0.0880
     33 C         142.7181  139.2018  159.5257 C.3     1  UNL1        0.0244
     34 C         143.5617  138.4169  160.4860 C.3     1  UNL1        0.0432
     35 C         143.0197  138.0535  161.8366 C.2     1  UNL1        0.0504
     36 O         141.7564  137.2524  161.9470 O.co2   1  UNL1       -0.5492
     37 O         143.7410  138.4911  163.0768 O.co2   1  UNL1       -0.5492
@<TRIPOS>UNITY_ATOM_ATTR
36 1
charge -1
@<TRIPOS>BOND
     1    24    25    1
     2    25    23    1
     3    23    21    1
     4    21    22    2
     5    21     1    1
     6     1     2    2
     7     2    26    1
     8    26    27    1
     9    27    28    1
    10    28    29    1
    11    29    30    1
    12    30    31    1
    13    31    32    1
    14    32    33    1
    15    33    34    1
    16    34    35    1
    17    35    36   ar
    18    35    37   ar
    19     2     3    1
    20     3     4    1
    21     4    16    1
    22    16    17   ar
    23    17    18   ar
    24    18    19   ar
    25    19    20   ar
    26     4     5    2
    27     5     6    1
    28     6     8    1
    29     8     9   ar
    30     9    10   ar
    31    10    11   ar
    32    11    12    1
    33    11    13   ar
    34    13    14   ar
    35    14    15    1
    36     6     1    1
    37    14     8   ar
    38    32    27    1
    39    20    16   ar
    40     3     7    1
@<TRIPOS>MOLECULE
*****
 37 40 0 0 0
SMALL
GASTEIGER

@<TRIPOS>ATOM
      1 C         140.6557  140.9740  161.5580 C.2     1  UNL1        0.1397
      2 C         139.9566  141.3784  160.2940 C.2     1  UNL1        0.1355
      3 N         139.9853  140.4730  159.0985 N.pl3   1  UNL1       -0.1998
      4 C         140.7129  139.1631  159.1669 C.2     1  UNL1        0.3442
      5 N         141.4120  138.7587  160.4309 N.2     1  UNL1       -0.0580
      6 C         141.3833  139.6642  161.6265 C.3     1  UNL1        0.2692
      7 H         139.5264  140.7385  158.2689 H       1  UNL1        0.2983
      8 C         142.0824  139.2597  162.8905 C.ar    1  UNL1        0.0371
      9 C         143.5134  139.6500  163.1140 C.ar    1  UNL1        0.0030
     10 C         144.2125  139.2456  164.3780 C.ar    1  UNL1        0.0295
     11 C         143.4806  138.4508  165.4186 C.ar    1  UNL1        0.1406
     12 F         144.1797  138.0463  166.6825 F       1  UNL1       -0.2042
     13 C         142.0496  138.0605  165.1951 C.ar    1  UNL1        0.0362
     14 C         141.3505  138.4649  163.9310 C.ar    1  UNL1        0.0372
     15 BR        139.9196  138.0746  163.7075 Br      1  UNL1       -0.0491
     16 C         140.7416  138.2577  157.9714 C.ar    1  UNL1        0.1931
     17 N         139.5553  137.8369  157.1554 N.ar    1  UNL1       -0.2297
     18 C         140.0421  136.9332  156.0616 C.ar    1  UNL1        0.1067
     19 C         141.5292  136.7955  156.2015 C.ar    1  UNL1        0.0577
     20 S         141.9614  137.6140  157.3818 S.2     1  UNL1       -0.0586
     21 C         140.6270  141.8795  162.7536 C.2     1  UNL1        0.3447
     22 O         139.4548  141.8499  163.6889 O.2     1  UNL1       -0.2450
     23 O         141.7707  142.8145  163.0139 O.3     1  UNL1       -0.4455
     24 C         144.1677  143.5863  162.3746 C.3     1  UNL1        0.0513
     25 C         142.8503  142.9832  161.9863 C.3     1  UNL1        0.2089
     26 C         139.2289  142.6884  160.2256 C.3     1  UNL1        0.1404
     27 N         139.4699  143.6210  159.0758 N.3     1  UNL1       -0.2628
     28 C         138.9856  143.2599  157.7028 C.3     1  UNL1        0.1049
     29 C         139.2266  144.1926  156.5530 C.3     1  UNL1        0.1595
     30 O         139.9521  145.4864  156.7762 O.3     1  UNL1       -0.3509
     31 C         140.4364  145.8475  158.1491 C.3     1  UNL1        0.1580
     32 C         140.1954  144.9149  159.2989 C.3     1  UNL1        0.0880
     33 C         140.6798  145.2760  160.6718 C.3     1  UNL1        0.0244
     34 C         139.7827  146.0276  161.6101 C.3     1  UNL1        0.0432
     35 C         139.1073  145.3082  162.7398 C.2     1  UNL1        0.0504
     36 O         137.7406  144.7216  162.5450 O.co2   1  UNL1       -0.5492
     37 O         139.7987  145.1753  164.0643 O.co2   1  UNL1       -0.5492
@<TRIPOS>UNITY_ATOM_ATTR
36 1
charge -1
@<TRIPOS>BOND
     1    24    25    1
     2    25    23    1
     3    23    21    1
     4    21    22    2
     5    21     1    1
     6     1     2    2
     7     2    26    1
     8    26    27    1
     9    27    28    1
    10    28    29    1
    11    29    30    1
    12    30    31    1
    13    31    32    1
    14    32    33    1
    15    33    34    1
    16    34    35    1
    17    35    36   ar
    18    35    37   ar
    19     2     3    1
    20     3     4    1
    21     4    16    1
    22    16    17   ar
    23    17    18   ar
    24    18    19   ar
    25    19    20   ar
    26     4     5    2
    27     5     6    1
    28     6     8    1
    29     8     9   ar
    30     9    10   ar
    31    10    11   ar
    32    11    12    1
    33    11    13   ar
    34    13    14   ar
    35    14    15    1
    36     6     1    1
    37    14     8   ar
    38    32    27    1
    39    20    16   ar
    40     3     7    1
@<TRIPOS>MOLECULE
*****
 37 40 0 0 0
SMALL
GASTEIGER

@<TRIPOS>ATOM
      1 C         142.4416  142.3484  163.8779 C.2     1  UNL1        0.1397
      2 C         142.1040  142.4886  162.4231 C.2     1  UNL1        0.1355
      3 N         140.9912  141.6765  161.8298 N.pl3   1  UNL1       -0.1998
      4 C         140.2161  140.7240  162.6912 C.2     1  UNL1        0.3442
      5 N         140.5537  140.5838  164.1459 N.2     1  UNL1       -0.0580
      6 C         141.6665  141.3960  164.7392 C.3     1  UNL1        0.2692
      7 H         140.7696  141.7685  160.8750 H       1  UNL1        0.2983
      8 C         142.0041  141.2558  166.1941 C.ar    1  UNL1        0.0371
      9 C         141.8560  142.4305  167.1150 C.ar    1  UNL1        0.0030
     10 C         142.1936  142.2903  168.5697 C.ar    1  UNL1        0.0295
     11 C         142.6792  140.9753  169.1036 C.ar    1  UNL1        0.1406
     12 F         143.0168  140.8351  170.5584 F       1  UNL1       -0.2042
     13 C         142.8273  139.8006  168.1828 C.ar    1  UNL1        0.0362
     14 C         142.4897  139.9408  166.7279 C.ar    1  UNL1        0.0372
     15 BR        142.6377  138.7661  165.8070 Br      1  UNL1       -0.0491
     16 C         139.1033  139.9119  162.0978 C.ar    1  UNL1        0.1931
     17 N         138.1602  140.3618  161.0216 N.ar    1  UNL1       -0.2297
     18 C         137.2123  139.2351  160.7351 C.ar    1  UNL1        0.1067
     19 C         137.5695  138.0889  161.6342 C.ar    1  UNL1        0.0577
     20 S         138.7382  138.5071  162.4764 S.2     1  UNL1       -0.0586
     21 C         143.5544  143.1606  164.4712 C.2     1  UNL1        0.3447
     22 O         143.3683  144.6307  164.7039 O.2     1  UNL1       -0.2450
     23 O         144.8532  142.5027  164.8319 O.3     1  UNL1       -0.4455
     24 C         145.2590  140.1372  163.8372 C.3     1  UNL1        0.0513
     25 C         145.5421  141.6103  163.8425 C.3     1  UNL1        0.2089
     26 C         142.8792  143.4411  161.5617 C.3     1  UNL1        0.1404
     27 N         142.2413  144.0391  160.3429 N.3     1  UNL1       -0.2628
     28 C         142.6304  143.5537  158.9780 C.3     1  UNL1        0.1049
     29 C         141.9925  144.1518  157.7592 C.3     1  UNL1        0.1595
     30 O         140.9654  145.2352  157.9054 O.3     1  UNL1       -0.3509
     31 C         140.5763  145.7206  159.2703 C.3     1  UNL1        0.1580
     32 C         141.2142  145.1226  160.4890 C.3     1  UNL1        0.0880
     33 C         140.8250  145.6079  161.8539 C.3     1  UNL1        0.0244
     34 C         139.3920  145.5441  162.2923 C.3     1  UNL1        0.0432
     35 C         138.7346  144.2145  162.5160 C.2     1  UNL1        0.0504
     36 O         138.6147  143.6614  163.9051 O.co2   1  UNL1       -0.5492
     37 O         138.1971  143.4381  161.3506 O.co2   1  UNL1       -0.5492
@<TRIPOS>UNITY_ATOM_ATTR
36 1
charge -1
@<TRIPOS>BOND
     1    24    25    1
     2    25    23    1
     3    23    21    1
     4    21    22    2
     5    21     1    1
     6     1     2    2
     7     2    26    1
     8    26    27    1
     9    27    28    1
    10    28    29    1
    11    29    30    1
    12    30    31    1
    13    31    32    1
    14    32    33    1
    15    33    34    1
    16    34    35    1
    17    35    36   ar
    18    35    37   ar
    19     2     3    1
    20     3     4    1
    21     4    16    1
    22    16    17   ar
    23    17    18   ar
    24    18    19   ar
    25    19    20   ar
    26     4     5    2
    27     5     6    1
    28     6     8    1
    29     8     9   ar
    30     9    10   ar
    31    10    11   ar
    32    11    12    1
    33    11    13   ar
    34    13    14   ar
    35    14    15    1
    36     6     1    1
    37    14     8   ar
    38    32    27    1
    39    20    16   ar
    40     3     7    1
@<TRIPOS>MOLECULE
*****
 37 40 0 0 0
SMALL
GASTEIGER

@<TRIPOS>ATOM
      1 C         141.3581  139.9631  164.5645 C.2     1  UNL1        0.1397
      2 C         141.5350  140.1183  163.0831 C.2     1  UNL1        0.1355
      3 N         141.1945  141.4197  162.4193 N.pl3   1  UNL1       -0.1998
      4 C         140.6772  142.5659  163.2370 C.2     1  UNL1        0.3442
      5 N         140.5004  142.4107  164.7184 N.2     1  UNL1       -0.0580
      6 C         140.8408  141.1093  165.3821 C.3     1  UNL1        0.2692
      7 H         141.3106  141.5215  161.4470 H       1  UNL1        0.2983
      8 C         140.6640  140.9542  166.8636 C.ar    1  UNL1        0.0371
      9 C         139.4398  140.2779  167.4060 C.ar    1  UNL1        0.0030
     10 C         139.2629  140.1227  168.8874 C.ar    1  UNL1        0.0295
     11 C         140.3102  140.6439  169.8265 C.ar    1  UNL1        0.1406
     12 F         140.1332  140.4887  171.3079 F       1  UNL1       -0.2042
     13 C         141.5343  141.3201  169.2841 C.ar    1  UNL1        0.0362
     14 C         141.7112  141.4753  167.8026 C.ar    1  UNL1        0.0372
     15 BR        142.9353  142.1516  167.2602 Br      1  UNL1       -0.0491
     16 C         140.3368  143.8672  162.5732 C.ar    1  UNL1        0.1931
     17 N         139.5789  145.0025  163.1952 N.ar    1  UNL1       -0.2297
     18 C         139.4681  146.0987  162.1774 C.ar    1  UNL1        0.1067
     19 C         140.1576  145.6410  160.9263 C.ar    1  UNL1        0.0577
     20 S         140.6944  144.2619  161.1710 S.2     1  UNL1       -0.0586
     21 C         141.6986  138.6618  165.2282 C.2     1  UNL1        0.3447
     22 O         140.9551  137.4132  164.8566 O.2     1  UNL1       -0.2450
     23 O         142.7826  138.6090  166.2636 O.3     1  UNL1       -0.4455
     24 C         144.8376  139.1976  164.7869 C.3     1  UNL1        0.0513
     25 C         144.2019  138.3530  165.8512 C.3     1  UNL1        0.2089
     26 C         142.0523  138.9721  162.2653 C.3     1  UNL1        0.1404
     27 N         142.3426  139.1627  160.8061 N.3     1  UNL1       -0.2628
     28 C         141.4449  138.5443  159.7758 C.3     1  UNL1        0.1049
     29 C         141.7352  138.7348  158.3165 C.3     1  UNL1        0.1595
     30 O         142.9233  139.5438  157.8876 O.3     1  UNL1       -0.3509
     31 C         143.8211  140.1622  158.9179 C.3     1  UNL1        0.1580
     32 C         143.5308  139.9717  160.3771 C.3     1  UNL1        0.0880
     33 C         144.4286  140.5901  161.4075 C.3     1  UNL1        0.0244
     34 C         144.7659  142.0495  161.3294 C.3     1  UNL1        0.0432
     35 C         144.3457  142.9764  162.4313 C.2     1  UNL1        0.0504
     36 O         144.0403  142.4308  163.7947 O.co2   1  UNL1       -0.5492
     37 O         144.2308  144.4489  162.1698 O.co2   1  UNL1       -0.5492
@<TRIPOS>UNITY_ATOM_ATTR
36 1
charge -1
@<TRIPOS>BOND
     1    24    25    1
     2    25    23    1
     3    23    21    1
     4    21    22    2
     5    21     1    1
     6     1     2    2
     7     2    26    1
     8    26    27    1
     9    27    28    1
    10    28    29    1
    11    29    30    1
    12    30    31    1
    13    31    32    1
    14    32    33    1
    15    33    34    1
    16    34    35    1
    17    35    36   ar
    18    35    37   ar
    19     2     3    1
    20     3     4    1
    21     4    16    1
    22    16    17   ar
    23    17    18   ar
    24    18    19   ar
    25    19    20   ar
    26     4     5    2
    27     5     6    1
    28     6     8    1
    29     8     9   ar
    30     9    10   ar
    31    10    11   ar
    32    11    12    1
    33    11    13   ar
    34    13    14   ar
    35    14    15    1
    36     6     1    1
    37    14     8   ar
    38    32    27    1
    39    20    16   ar
    40     3     7    1
