@<TRIPOS>MOLECULE
*****
 38 44 0 0 0
SMALL
GASTEIGER

@<TRIPOS>ATOM
      1 C         137.8165  140.4595  162.3594 C.3     1  UNL1        0.0700
      2 C         138.2823  139.0517  162.5856 C.3     1  UNL1        0.0193
      3 C         138.6278  138.5894  163.9701 C.3     1  UNL1        0.0286
      4 C         138.5076  139.5349  165.1284 C.3     1  UNL1        0.0933
      5 C         138.0419  140.9427  164.9022 C.3     1  UNL1        0.0286
      6 C         137.6964  141.4050  163.5176 C.3     1  UNL1        0.0193
      7 O         138.3069  139.8339  164.3879 O.3     1  UNL1       -0.3571
      8 C         137.9945  140.2520  163.1361 C.3     1  UNL1        0.1562
      9 N         137.4710  140.9218  160.9748 N.3     1  UNL1       -0.2926
     10 H         136.9620  140.1591  160.5282 H       1  UNL1        0.1236
     11 C         138.5595  141.3296  160.0268 C.3     1  UNL1        0.1152
     12 O         145.8554  141.6838  162.7460 O.2     1  UNL1       -0.2707
     13 C         144.5871  142.3717  162.3358 C.2     1  UNL1        0.2718
     14 C         144.4826  143.8656  162.4218 C.3     1  UNL1        0.2898
     15 O         143.2142  144.5535  162.0116 O.3     1  UNL1       -0.4628
     16 C         142.0506  143.7475  161.5154 C.ar    1  UNL1        0.1708
     17 C         140.7823  144.4355  161.1052 C.ar    1  UNL1        0.0411
     18 C         139.6186  143.6295  160.6090 C.ar    1  UNL1        0.0193
     19 C         139.7232  142.1356  160.5230 C.ar    1  UNL1        0.0765
     20 N         140.9915  141.4477  160.9332 N.ar    1  UNL1       -0.2304
     21 C         142.1551  142.2537  161.4294 C.ar    1  UNL1        0.1682
     22 N         143.4234  141.5658  161.8396 N.am    1  UNL1       -0.2639
     23 H         143.4920  140.5853  161.7831 H       1  UNL1        0.1565
     24 C         138.8531  139.0726  166.5129 C.3     1  UNL1        0.0336
     25 C         139.7818  139.8857  167.3653 C.3     1  UNL1        0.0511
     26 C         139.6524  140.1114  168.8425 C.3     1  UNL1        0.1136
     27 N         140.7935  140.9811  169.2803 N.ar    1  UNL1       -0.2940
     28 C         141.1803  141.5294  170.6218 C.ar    1  UNL1        0.2610
     29 O         140.3457  141.2175  171.8285 O.2     1  UNL1       -0.2670
     30 C         142.4018  142.3894  170.7566 C.ar    1  UNL1        0.0623
     31 C         143.2364  142.7013  169.5498 C.ar    1  UNL1        0.0254
     32 C         142.8495  142.1530  168.2083 C.ar    1  UNL1        0.0971
     33 N         143.4864  142.2982  166.8505 N.ar    1  UNL1       -0.2400
     34 C         142.9776  141.6822  165.5810 C.ar    1  UNL1        0.1281
     35 C         141.7357  140.8411  165.6008 C.ar    1  UNL1        0.1566
     36 F         141.2269  140.2251  164.3313 F       1  UNL1       -0.2028
     37 C         141.0028  140.6159  166.8900 C.ar    1  UNL1        0.0258
     38 C         141.6281  141.2929  168.0735 C.ar    1  UNL1        0.0783
@<TRIPOS>BOND
     1    12    13    2
     2    13    14    1
     3    14    15    1
     4    15    16    1
     5    16    17   ar
     6    17    18   ar
     7    18    19   ar
     8    19    11    1
     9    11     9    1
    10     9     1    1
    11     1     2    1
    12     2     3    1
    13     3     4    1
    14     4    24    1
    15    24    25    1
    16    25    26    1
    17    26    27    1
    18    27    28   ar
    19    28    29    2
    20    28    30   ar
    21    30    31   ar
    22    31    32   ar
    23    32    33   ar
    24    33    34   ar
    25    34    35   ar
    26    35    36    1
    27    35    37   ar
    28    37    38   ar
    29     4     5    1
    30     5     6    1
    31     4     7    1
    32     7     8    1
    33    19    20   ar
    34    20    21   ar
    35    21    22    1
    36    22    13   am
    37    21    16   ar
    38     6     1    1
    39     8     1    1
    40    37    25    1
    41    38    27   ar
    42    38    32   ar
    43     9    10    1
    44    22    23    1
@<TRIPOS>MOLECULE
*****
 38 44 0 0 0
SMALL
GASTEIGER

@<TRIPOS>ATOM
      1 C         139.0622  138.2168  162.2794 C.3     1  UNL1        0.0700
      2 C         139.6841  137.5536  163.4725 C.3     1  UNL1        0.0193
      3 C         139.4160  138.0836  164.8498 C.3     1  UNL1        0.0286
      4 C         138.5259  139.2769  165.0342 C.3     1  UNL1        0.0933
      5 C         137.9040  139.9401  163.8411 C.3     1  UNL1        0.0286
      6 C         138.1722  139.4100  162.4637 C.3     1  UNL1        0.0193
      7 O         138.6435  139.0225  164.2599 O.3     1  UNL1       -0.3571
      8 C         138.8859  138.5433  163.0145 C.3     1  UNL1        0.1562
      9 N         139.3304  137.6867  160.9020 N.3     1  UNL1       -0.2926
     10 H         139.5758  136.7024  161.0080 H       1  UNL1        0.1236
     11 C         140.3983  138.3103  160.0532 C.3     1  UNL1        0.1152
     12 O         144.3493  144.5920  162.4362 O.2     1  UNL1       -0.2707
     13 C         144.2443  143.1033  162.2859 C.2     1  UNL1        0.2718
     14 C         145.3512  142.2197  162.7798 C.3     1  UNL1        0.2898
     15 O         145.2462  140.7309  162.6295 O.3     1  UNL1       -0.4628
     16 C         144.0342  140.1258  161.9854 C.ar    1  UNL1        0.1708
     17 C         143.9292  138.6371  161.8352 C.ar    1  UNL1        0.0411
     18 C         142.7172  138.0318  161.1911 C.ar    1  UNL1        0.0193
     19 C         141.6102  138.9154  160.6972 C.ar    1  UNL1        0.0765
     20 N         141.7153  140.4042  160.8475 N.ar    1  UNL1       -0.2304
     21 C         142.9273  141.0094  161.4916 C.ar    1  UNL1        0.1682
     22 N         143.0322  142.4981  161.6418 N.am    1  UNL1       -0.2639
     23 H         142.3057  143.0780  161.3177 H       1  UNL1        0.1565
     24 C         138.2578  139.8069  166.4115 C.3     1  UNL1        0.0336
     25 C         139.3878  140.3337  167.2456 C.3     1  UNL1        0.0511
     26 C         139.4880  140.2624  168.7405 C.3     1  UNL1        0.1136
     27 N         140.7782  140.9089  169.1500 N.ar    1  UNL1       -0.2940
     28 C         141.4082  141.1297  170.4932 C.ar    1  UNL1        0.2610
     29 O         140.7110  140.6589  171.7351 O.2     1  UNL1       -0.2670
     30 C         142.7353  141.8212  170.5946 C.ar    1  UNL1        0.0623
     31 C         143.4325  142.2921  169.3527 C.ar    1  UNL1        0.0254
     32 C         142.8025  142.0713  168.0094 C.ar    1  UNL1        0.0971
     33 N         143.2640  142.4300  166.6206 N.ar    1  UNL1       -0.2400
     34 C         142.5152  142.1403  165.3536 C.ar    1  UNL1        0.1281
     35 C         141.1913  141.4374  165.4088 C.ar    1  UNL1        0.1566
     36 F         140.4425  141.1477  164.1418 F       1  UNL1       -0.2028
     37 C         140.6160  141.0242  166.7311 C.ar    1  UNL1        0.0258
     38 C         141.4753  141.3797  167.9081 C.ar    1  UNL1        0.0783
@<TRIPOS>BOND
     1    12    13    2
     2    13    14    1
     3    14    15    1
     4    15    16    1
     5    16    17   ar
     6    17    18   ar
     7    18    19   ar
     8    19    11    1
     9    11     9    1
    10     9     1    1
    11     1     2    1
    12     2     3    1
    13     3     4    1
    14     4    24    1
    15    24    25    1
    16    25    26    1
    17    26    27    1
    18    27    28   ar
    19    28    29    2
    20    28    30   ar
    21    30    31   ar
    22    31    32   ar
    23    32    33   ar
    24    33    34   ar
    25    34    35   ar
    26    35    36    1
    27    35    37   ar
    28    37    38   ar
    29     4     5    1
    30     5     6    1
    31     4     7    1
    32     7     8    1
    33    19    20   ar
    34    20    21   ar
    35    21    22    1
    36    22    13   am
    37    21    16   ar
    38     6     1    1
    39     8     1    1
    40    37    25    1
    41    38    27   ar
    42    38    32   ar
    43     9    10    1
    44    22    23    1
@<TRIPOS>MOLECULE
*****
 38 44 0 0 0
SMALL
GASTEIGER

@<TRIPOS>ATOM
      1 C         139.4161  137.7653  162.3942 C.3     1  UNL1        0.0700
      2 C         140.7732  138.1339  161.8724 C.3     1  UNL1        0.0193
      3 C         141.9070  138.3634  162.8272 C.3     1  UNL1        0.0286
      4 C         141.6837  138.2243  164.3040 C.3     1  UNL1        0.0933
      5 C         140.3265  137.8557  164.8259 C.3     1  UNL1        0.0286
      6 C         139.1927  137.6262  163.8709 C.3     1  UNL1        0.0193
      7 O         141.0318  138.0887  163.8196 O.3     1  UNL1       -0.3571
      8 C         140.0066  137.8811  162.9562 C.3     1  UNL1        0.1562
      9 N         138.2822  137.5358  161.4392 N.3     1  UNL1       -0.2926
     10 H         138.6991  137.3230  160.5329 H       1  UNL1        0.1236
     11 C         137.2675  138.6156  161.2064 C.3     1  UNL1        0.1152
     12 O         138.0658  145.0807  165.4860 O.2     1  UNL1       -0.2707
     13 C         138.1989  144.3671  164.1734 C.2     1  UNL1        0.2718
     14 C         138.7312  145.0949  162.9746 C.3     1  UNL1        0.2898
     15 O         138.8643  144.3812  161.6619 O.3     1  UNL1       -0.4628
     16 C         138.4651  142.9398  161.5481 C.ar    1  UNL1        0.1708
     17 C         138.5982  142.2263  160.2354 C.ar    1  UNL1        0.0411
     18 C         138.1990  140.7848  160.1215 C.ar    1  UNL1        0.0193
     19 C         137.6667  140.0570  161.3203 C.ar    1  UNL1        0.0765
     20 N         137.5336  140.7707  162.6329 N.ar    1  UNL1       -0.2304
     21 C         137.9328  142.2121  162.7468 C.ar    1  UNL1        0.1682
     22 N         137.7997  142.9256  164.0594 N.am    1  UNL1       -0.2639
     23 H         137.4503  142.4480  164.8462 H       1  UNL1        0.1565
     24 C         142.8174  138.4538  165.2589 C.3     1  UNL1        0.0336
     25 C         142.5935  139.2466  166.5124 C.3     1  UNL1        0.0511
     26 C         143.0927  138.8911  167.8815 C.3     1  UNL1        0.1136
     27 N         142.6388  139.9589  168.8322 N.ar    1  UNL1       -0.2940
     28 C         142.8347  140.1377  170.3085 C.ar    1  UNL1        0.2610
     29 O         143.6144  139.1222  171.0901 O.2     1  UNL1       -0.2670
     30 C         142.2509  141.3320  171.0033 C.ar    1  UNL1        0.0623
     31 C         141.4712  142.3476  170.2217 C.ar    1  UNL1        0.0254
     32 C         141.2753  142.1687  168.7454 C.ar    1  UNL1        0.0971
     33 N         140.5522  143.0108  167.7263 N.ar    1  UNL1       -0.2400
     34 C         140.4397  142.6995  166.2633 C.ar    1  UNL1        0.1281
     35 C         141.0791  141.4612  165.7086 C.ar    1  UNL1        0.1566
     36 F         140.9666  141.1500  164.2456 F       1  UNL1       -0.2028
     37 C         141.8311  140.5342  166.6169 C.ar    1  UNL1        0.0258
     38 C         141.8591  140.9744  168.0506 C.ar    1  UNL1        0.0783
@<TRIPOS>BOND
     1    12    13    2
     2    13    14    1
     3    14    15    1
     4    15    16    1
     5    16    17   ar
     6    17    18   ar
     7    18    19   ar
     8    19    11    1
     9    11     9    1
    10     9     1    1
    11     1     2    1
    12     2     3    1
    13     3     4    1
    14     4    24    1
    15    24    25    1
    16    25    26    1
    17    26    27    1
    18    27    28   ar
    19    28    29    2
    20    28    30   ar
    21    30    31   ar
    22    31    32   ar
    23    32    33   ar
    24    33    34   ar
    25    34    35   ar
    26    35    36    1
    27    35    37   ar
    28    37    38   ar
    29     4     5    1
    30     5     6    1
    31     4     7    1
    32     7     8    1
    33    19    20   ar
    34    20    21   ar
    35    21    22    1
    36    22    13   am
    37    21    16   ar
    38     6     1    1
    39     8     1    1
    40    37    25    1
    41    38    27   ar
    42    38    32   ar
    43     9    10    1
    44    22    23    1
@<TRIPOS>MOLECULE
*****
 38 44 0 0 0
SMALL
GASTEIGER

@<TRIPOS>ATOM
      1 C         138.6402  138.5494  162.1728 C.3     1  UNL1        0.0700
      2 C         139.0724  137.5776  163.2305 C.3     1  UNL1        0.0193
      3 C         139.0213  137.9716  164.6769 C.3     1  UNL1        0.0286
      4 C         138.5380  139.3374  165.0657 C.3     1  UNL1        0.0933
      5 C         138.1059  140.3092  164.0079 C.3     1  UNL1        0.0286
      6 C         138.1570  139.9152  162.5614 C.3     1  UNL1        0.0193
      7 O         138.5483  139.1669  164.2601 O.3     1  UNL1       -0.3571
      8 C         138.5945  138.8107  162.9523 C.3     1  UNL1        0.1562
      9 N         138.6913  138.1554  160.7263 N.3     1  UNL1       -0.2926
     10 H         138.7029  137.1358  160.6991 H       1  UNL1        0.1236
     11 C         139.8230  138.6245  159.8607 C.3     1  UNL1        0.1152
     12 O         144.4443  144.3761  162.3732 O.2     1  UNL1       -0.2707
     13 C         144.1888  142.9132  162.1622 C.2     1  UNL1        0.2718
     14 C         145.2183  141.9045  162.5777 C.3     1  UNL1        0.2898
     15 O         144.9628  140.4415  162.3667 O.3     1  UNL1       -0.4628
     16 C         143.6779  139.9873  161.7402 C.ar    1  UNL1        0.1708
     17 C         143.4224  138.5243  161.5292 C.ar    1  UNL1        0.0411
     18 C         142.1374  138.0700  160.9027 C.ar    1  UNL1        0.0193
     19 C         141.1079  139.0787  160.4872 C.ar    1  UNL1        0.0765
     20 N         141.3634  140.5417  160.6982 N.ar    1  UNL1       -0.2304
     21 C         142.6484  140.9960  161.3247 C.ar    1  UNL1        0.1682
     22 N         142.9038  142.4589  161.5357 N.am    1  UNL1       -0.2639
     23 H         142.2281  143.1209  161.2630 H       1  UNL1        0.1565
     24 C         138.4870  139.7314  166.5121 C.3     1  UNL1        0.0336
     25 C         139.6767  140.3801  167.1552 C.3     1  UNL1        0.0511
     26 C         140.8637  140.9524  166.4385 C.3     1  UNL1        0.1136
     27 N         141.8090  141.4965  167.4683 N.ar    1  UNL1       -0.2940
     28 C         143.1407  142.1763  167.3486 C.ar    1  UNL1        0.2610
     29 O         143.7434  142.4124  165.9955 O.2     1  UNL1       -0.2670
     30 C         143.8696  142.6201  168.5821 C.ar    1  UNL1        0.0623
     31 C         143.2669  142.3841  169.9353 C.ar    1  UNL1        0.0254
     32 C         141.9352  141.7043  170.0549 C.ar    1  UNL1        0.0971
     33 N         141.1049  141.3427  171.2592 N.ar    1  UNL1       -0.2400
     34 C         139.7729  140.6541  171.2221 C.ar    1  UNL1        0.1281
     35 C         139.1647  140.2679  169.9064 C.ar    1  UNL1        0.1566
     36 F         137.8326  139.5793  169.8693 F       1  UNL1       -0.2028
     37 C         139.8885  140.5705  168.6279 C.ar    1  UNL1        0.0258
     38 C         141.2062  141.2605  168.8214 C.ar    1  UNL1        0.0783
@<TRIPOS>BOND
     1    12    13    2
     2    13    14    1
     3    14    15    1
     4    15    16    1
     5    16    17   ar
     6    17    18   ar
     7    18    19   ar
     8    19    11    1
     9    11     9    1
    10     9     1    1
    11     1     2    1
    12     2     3    1
    13     3     4    1
    14     4    24    1
    15    24    25    1
    16    25    26    1
    17    26    27    1
    18    27    28   ar
    19    28    29    2
    20    28    30   ar
    21    30    31   ar
    22    31    32   ar
    23    32    33   ar
    24    33    34   ar
    25    34    35   ar
    26    35    36    1
    27    35    37   ar
    28    37    38   ar
    29     4     5    1
    30     5     6    1
    31     4     7    1
    32     7     8    1
    33    19    20   ar
    34    20    21   ar
    35    21    22    1
    36    22    13   am
    37    21    16   ar
    38     6     1    1
    39     8     1    1
    40    37    25    1
    41    38    27   ar
    42    38    32   ar
    43     9    10    1
    44    22    23    1
@<TRIPOS>MOLECULE
*****
 38 44 0 0 0
SMALL
GASTEIGER

@<TRIPOS>ATOM
      1 C         138.4729  141.9912  161.2624 C.3     1  UNL1        0.0700
      2 C         137.7735  142.3330  162.5446 C.3     1  UNL1        0.0193
      3 C         137.7549  141.3469  163.6747 C.3     1  UNL1        0.0286
      4 C         138.4355  140.0188  163.5226 C.3     1  UNL1        0.0933
      5 C         139.1349  139.6770  162.2403 C.3     1  UNL1        0.0286
      6 C         139.1535  140.6633  161.1102 C.3     1  UNL1        0.0193
      7 O         138.4725  140.5268  162.8755 O.3     1  UNL1       -0.3571
      8 C         138.4895  141.4184  161.8537 C.3     1  UNL1        0.1562
      9 N         138.4915  142.9774  160.1323 N.3     1  UNL1       -0.2926
     10 H         138.5156  142.4352  159.2687 H       1  UNL1        0.1236
     11 C         139.5941  143.9901  160.0387 C.3     1  UNL1        0.1152
     12 O         146.1504  141.4851  163.4284 O.2     1  UNL1       -0.2707
     13 C         144.9819  142.4251  163.3961 C.2     1  UNL1        0.2718
     14 C         144.8304  143.4701  164.4614 C.3     1  UNL1        0.2898
     15 O         143.6619  144.4102  164.4291 O.3     1  UNL1       -0.4628
     16 C         142.6450  144.3051  163.3315 C.ar    1  UNL1        0.1708
     17 C         141.4766  145.2452  163.2992 C.ar    1  UNL1        0.0411
     18 C         140.4596  145.1402  162.2016 C.ar    1  UNL1        0.0193
     19 C         140.6111  144.0951  161.1363 C.ar    1  UNL1        0.0765
     20 N         141.7796  143.1551  161.1686 N.ar    1  UNL1       -0.2304
     21 C         142.7965  143.2601  162.2662 C.ar    1  UNL1        0.1682
     22 N         143.9649  142.3201  162.2985 N.am    1  UNL1       -0.2639
     23 H         144.0644  141.6342  161.5993 H       1  UNL1        0.1565
     24 C         138.4168  139.0327  164.6526 C.3     1  UNL1        0.0336
     25 C         139.2389  139.2848  165.8817 C.3     1  UNL1        0.0511
     26 C         138.7335  139.8321  167.1836 C.3     1  UNL1        0.1136
     27 N         139.8929  139.9194  168.1312 N.ar    1  UNL1       -0.2940
     28 C         139.9938  140.3844  169.5537 C.ar    1  UNL1        0.2610
     29 O         138.7717  140.8777  170.2700 O.2     1  UNL1       -0.2670
     30 C         141.3168  140.3560  170.2600 C.ar    1  UNL1        0.0623
     31 C         142.5389  139.8626  169.5437 C.ar    1  UNL1        0.0254
     32 C         142.4381  139.3976  168.1212 C.ar    1  UNL1        0.0971
     33 N         143.4777  138.8617  167.1714 N.ar    1  UNL1       -0.2400
     34 C         143.2238  138.4307  165.7572 C.ar    1  UNL1        0.1281
     35 C         141.8404  138.5168  165.1839 C.ar    1  UNL1        0.1566
     36 F         141.5864  138.0858  163.7698 F       1  UNL1       -0.2028
     37 C         140.7108  139.0338  166.0247 C.ar    1  UNL1        0.0258
     38 C         141.1151  139.4260  167.4150 C.ar    1  UNL1        0.0783
@<TRIPOS>BOND
     1    12    13    2
     2    13    14    1
     3    14    15    1
     4    15    16    1
     5    16    17   ar
     6    17    18   ar
     7    18    19   ar
     8    19    11    1
     9    11     9    1
    10     9     1    1
    11     1     2    1
    12     2     3    1
    13     3     4    1
    14     4    24    1
    15    24    25    1
    16    25    26    1
    17    26    27    1
    18    27    28   ar
    19    28    29    2
    20    28    30   ar
    21    30    31   ar
    22    31    32   ar
    23    32    33   ar
    24    33    34   ar
    25    34    35   ar
    26    35    36    1
    27    35    37   ar
    28    37    38   ar
    29     4     5    1
    30     5     6    1
    31     4     7    1
    32     7     8    1
    33    19    20   ar
    34    20    21   ar
    35    21    22    1
    36    22    13   am
    37    21    16   ar
    38     6     1    1
    39     8     1    1
    40    37    25    1
    41    38    27   ar
    42    38    32   ar
    43     9    10    1
    44    22    23    1
@<TRIPOS>MOLECULE
*****
 38 44 0 0 0
SMALL
GASTEIGER

@<TRIPOS>ATOM
      1 C         137.8589  142.5040  164.4688 C.3     1  UNL1        0.0700
      2 C         138.5309  141.3923  165.2187 C.3     1  UNL1        0.0193
      3 C         138.7444  140.0631  164.5571 C.3     1  UNL1        0.0286
      4 C         138.2859  139.8457  163.1455 C.3     1  UNL1        0.0933
      5 C         137.6138  140.9575  162.3955 C.3     1  UNL1        0.0286
      6 C         137.4003  142.2867  163.0572 C.3     1  UNL1        0.0193
      7 O         138.1470  140.5914  163.4661 O.3     1  UNL1       -0.3571
      8 C         137.9539  141.7932  164.0642 C.3     1  UNL1        0.1562
      9 N         137.6454  143.8332  165.1305 N.3     1  UNL1       -0.2926
     10 H         136.8399  144.2627  164.6754 H       1  UNL1        0.1236
     11 C         138.7414  144.8572  165.1273 C.3     1  UNL1        0.1152
     12 O         145.8419  141.9131  163.8373 O.2     1  UNL1       -0.2707
     13 C         144.6646  142.7171  163.3709 C.2     1  UNL1        0.2718
     14 C         144.6769  143.3437  162.0081 C.3     1  UNL1        0.2898
     15 O         143.4995  144.1477  161.5417 O.3     1  UNL1       -0.4628
     16 C         142.3100  144.3250  162.4381 C.ar    1  UNL1        0.1708
     17 C         141.1327  145.1290  161.9717 C.ar    1  UNL1        0.0411
     18 C         139.9431  145.3064  162.8681 C.ar    1  UNL1        0.0193
     19 C         139.9309  144.6799  164.2309 C.ar    1  UNL1        0.0765
     20 N         141.1083  143.8758  164.6973 N.ar    1  UNL1       -0.2304
     21 C         142.2978  143.6985  163.8009 C.ar    1  UNL1        0.1682
     22 N         143.4751  142.8945  164.2673 N.am    1  UNL1       -0.2639
     23 H         143.4670  142.4832  165.1618 H       1  UNL1        0.1565
     24 C         138.4994  138.5166  162.4838 C.3     1  UNL1        0.0336
     25 C         139.3746  138.4150  161.2699 C.3     1  UNL1        0.0511
     26 C         138.9114  138.4490  159.8436 C.3     1  UNL1        0.1136
     27 N         140.1172  138.3166  158.9613 N.ar    1  UNL1       -0.2940
     28 C         140.2709  138.2866  157.4695 C.ar    1  UNL1        0.2610
     29 O         139.0624  138.4023  156.5886 O.2     1  UNL1       -0.2670
     30 C         141.6331  138.1408  156.8587 C.ar    1  UNL1        0.0623
     31 C         142.8416  138.0250  157.7397 C.ar    1  UNL1        0.0254
     32 C         142.6879  138.0551  159.2315 C.ar    1  UNL1        0.0971
     33 N         143.7036  137.9614  160.3405 N.ar    1  UNL1       -0.2400
     34 C         143.3956  138.0071  161.8078 C.ar    1  UNL1        0.1281
     35 C         141.9771  138.1572  162.2721 C.ar    1  UNL1        0.1566
     36 F         141.6691  138.2029  163.7394 F       1  UNL1       -0.2028
     37 C         140.8667  138.2617  161.2690 C.ar    1  UNL1        0.0258
     38 C         141.3257  138.2009  159.8423 C.ar    1  UNL1        0.0783
@<TRIPOS>BOND
     1    12    13    2
     2    13    14    1
     3    14    15    1
     4    15    16    1
     5    16    17   ar
     6    17    18   ar
     7    18    19   ar
     8    19    11    1
     9    11     9    1
    10     9     1    1
    11     1     2    1
    12     2     3    1
    13     3     4    1
    14     4    24    1
    15    24    25    1
    16    25    26    1
    17    26    27    1
    18    27    28   ar
    19    28    29    2
    20    28    30   ar
    21    30    31   ar
    22    31    32   ar
    23    32    33   ar
    24    33    34   ar
    25    34    35   ar
    26    35    36    1
    27    35    37   ar
    28    37    38   ar
    29     4     5    1
    30     5     6    1
    31     4     7    1
    32     7     8    1
    33    19    20   ar
    34    20    21   ar
    35    21    22    1
    36    22    13   am
    37    21    16   ar
    38     6     1    1
    39     8     1    1
    40    37    25    1
    41    38    27   ar
    42    38    32   ar
    43     9    10    1
    44    22    23    1
@<TRIPOS>MOLECULE
*****
 38 44 0 0 0
SMALL
GASTEIGER

@<TRIPOS>ATOM
      1 C         142.5950  144.3880  162.1152 C.3     1  UNL1        0.0700
      2 C         141.7934  144.6715  163.3510 C.3     1  UNL1        0.0193
      3 C         142.2355  144.1212  164.6744 C.3     1  UNL1        0.0286
      4 C         143.4793  143.2872  164.7622 C.3     1  UNL1        0.0933
      5 C         144.2809  143.0037  163.5265 C.3     1  UNL1        0.0286
      6 C         143.8387  143.5541  162.2029 C.3     1  UNL1        0.0193
      7 O         143.2767  143.5671  164.0147 O.3     1  UNL1       -0.3571
      8 C         142.8770  144.0647  162.8181 C.3     1  UNL1        0.1562
      9 N         142.1528  144.9384  160.7917 N.3     1  UNL1       -0.2926
     10 H         141.7334  145.8495  160.9770 H       1  UNL1        0.1236
     11 C         141.1738  144.1739  159.9509 C.3     1  UNL1        0.1152
     12 O         140.7591  136.8458  162.5731 O.2     1  UNL1       -0.2707
     13 C         140.1042  138.1680  162.3034 C.2     1  UNL1        0.2718
     14 C         138.6560  138.3697  162.6382 C.3     1  UNL1        0.2898
     15 O         138.0010  139.6920  162.3685 O.3     1  UNL1       -0.4628
     16 C         138.7942  140.8124  161.7641 C.ar    1  UNL1        0.1708
     17 C         138.1392  142.1346  161.4944 C.ar    1  UNL1        0.0411
     18 C         138.9324  143.2552  160.8900 C.ar    1  UNL1        0.0193
     19 C         140.3806  143.0535  160.5552 C.ar    1  UNL1        0.0765
     20 N         141.0356  141.7312  160.8249 N.ar    1  UNL1       -0.2304
     21 C         140.2424  140.6107  161.4293 C.ar    1  UNL1        0.1682
     22 N         140.8974  139.2885  161.6990 N.am    1  UNL1       -0.2639
     23 H         141.8479  139.1561  161.4793 H       1  UNL1        0.1565
     24 C         143.9214  142.7369  166.0857 C.3     1  UNL1        0.0336
     25 C         142.9058  142.2115  167.0565 C.3     1  UNL1        0.0511
     26 C         142.8789  142.4748  168.5330 C.3     1  UNL1        0.1136
     27 N         141.6952  141.7566  169.1104 N.ar    1  UNL1       -0.2940
     28 C         141.1680  141.6552  170.5109 C.ar    1  UNL1        0.2610
     29 O         141.8726  142.3623  171.6306 O.2     1  UNL1       -0.2670
     30 C         139.9362  140.8467  170.7919 C.ar    1  UNL1        0.0623
     31 C         139.2317  140.1396  169.6722 C.ar    1  UNL1        0.0254
     32 C         139.7589  140.2410  168.2716 C.ar    1  UNL1        0.0971
     33 N         139.2674  139.6494  166.9760 N.ar    1  UNL1       -0.2400
     34 C         139.9086  139.8418  165.6336 C.ar    1  UNL1        0.1281
     35 C         141.1443  140.6824  165.5064 C.ar    1  UNL1        0.1566
     36 F         141.7856  140.8747  164.1641 F       1  UNL1       -0.2028
     37 C         141.7389  141.3307  166.7214 C.ar    1  UNL1        0.0258
     38 C         140.9907  141.0495  167.9907 C.ar    1  UNL1        0.0783
@<TRIPOS>BOND
     1    12    13    2
     2    13    14    1
     3    14    15    1
     4    15    16    1
     5    16    17   ar
     6    17    18   ar
     7    18    19   ar
     8    19    11    1
     9    11     9    1
    10     9     1    1
    11     1     2    1
    12     2     3    1
    13     3     4    1
    14     4    24    1
    15    24    25    1
    16    25    26    1
    17    26    27    1
    18    27    28   ar
    19    28    29    2
    20    28    30   ar
    21    30    31   ar
    22    31    32   ar
    23    32    33   ar
    24    33    34   ar
    25    34    35   ar
    26    35    36    1
    27    35    37   ar
    28    37    38   ar
    29     4     5    1
    30     5     6    1
    31     4     7    1
    32     7     8    1
    33    19    20   ar
    34    20    21   ar
    35    21    22    1
    36    22    13   am
    37    21    16   ar
    38     6     1    1
    39     8     1    1
    40    37    25    1
    41    38    27   ar
    42    38    32   ar
    43     9    10    1
    44    22    23    1
@<TRIPOS>MOLECULE
*****
 38 44 0 0 0
SMALL
GASTEIGER

@<TRIPOS>ATOM
      1 C         144.8195  141.1819  162.1809 C.3     1  UNL1        0.0700
      2 C         144.1310  139.8702  161.9456 C.3     1  UNL1        0.0193
      3 C         143.7794  138.9887  163.1072 C.3     1  UNL1        0.0286
      4 C         144.1163  139.4190  164.5042 C.3     1  UNL1        0.0933
      5 C         144.8048  140.7307  164.7395 C.3     1  UNL1        0.0286
      6 C         145.1564  141.6122  163.5778 C.3     1  UNL1        0.0193
      7 O         144.3288  139.9357  163.8993 O.3     1  UNL1       -0.3571
      8 C         144.6468  140.7328  162.8491 C.3     1  UNL1        0.1562
      9 N         145.1711  142.0634  161.0192 N.3     1  UNL1       -0.2926
     10 H         146.0646  142.5019  161.2422 H       1  UNL1        0.1236
     11 C         144.2403  143.1640  160.6042 C.3     1  UNL1        0.1152
     12 O         136.8957  141.7402  162.7902 O.2     1  UNL1       -0.2707
     13 C         138.1529  142.5495  162.9098 C.2     1  UNL1        0.2718
     14 C         138.2191  143.6937  163.8775 C.3     1  UNL1        0.2898
     15 O         139.4764  144.5030  163.9971 O.3     1  UNL1       -0.4628
     16 C         140.6674  144.1683  163.1489 C.ar    1  UNL1        0.1708
     17 C         141.9246  144.9776  163.2684 C.ar    1  UNL1        0.0411
     18 C         143.1156  144.6429  162.4202 C.ar    1  UNL1        0.0193
     19 C         143.0493  143.4988  161.4524 C.ar    1  UNL1        0.0765
     20 N         141.7921  142.6894  161.3328 N.ar    1  UNL1       -0.2304
     21 C         140.6011  143.0242  162.1811 C.ar    1  UNL1        0.1682
     22 N         139.3439  142.2148  162.0615 N.am    1  UNL1       -0.2639
     23 H         139.3004  141.4639  161.4263 H       1  UNL1        0.1565
     24 C         143.7647  138.5375  165.6657 C.3     1  UNL1        0.0336
     25 C         142.7160  138.9718  166.6464 C.3     1  UNL1        0.0511
     26 C         142.9613  139.4390  168.0505 C.3     1  UNL1        0.1136
     27 N         141.6348  139.7711  168.6670 N.ar    1  UNL1       -0.2940
     28 C         141.2592  140.2782  170.0278 C.ar    1  UNL1        0.2610
     29 O         142.3244  140.5402  171.0508 O.2     1  UNL1       -0.2670
     30 C         139.8184  140.5232  170.3654 C.ar    1  UNL1        0.0623
     31 C         138.7532  140.2612  169.3423 C.ar    1  UNL1        0.0254
     32 C         139.1288  139.7542  167.9816 C.ar    1  UNL1        0.0971
     33 N         138.2888  139.4097  166.7790 N.ar    1  UNL1       -0.2400
     34 C         138.8135  138.9064  165.4671 C.ar    1  UNL1        0.1281
     35 C         140.2881  138.7091  165.2751 C.ar    1  UNL1        0.1566
     36 F         140.8128  138.2058  163.9631 F       1  UNL1       -0.2028
     37 C         141.2378  139.0151  166.3951 C.ar    1  UNL1        0.0258
     38 C         140.5696  139.5091  167.6439 C.ar    1  UNL1        0.0783
@<TRIPOS>BOND
     1    12    13    2
     2    13    14    1
     3    14    15    1
     4    15    16    1
     5    16    17   ar
     6    17    18   ar
     7    18    19   ar
     8    19    11    1
     9    11     9    1
    10     9     1    1
    11     1     2    1
    12     2     3    1
    13     3     4    1
    14     4    24    1
    15    24    25    1
    16    25    26    1
    17    26    27    1
    18    27    28   ar
    19    28    29    2
    20    28    30   ar
    21    30    31   ar
    22    31    32   ar
    23    32    33   ar
    24    33    34   ar
    25    34    35   ar
    26    35    36    1
    27    35    37   ar
    28    37    38   ar
    29     4     5    1
    30     5     6    1
    31     4     7    1
    32     7     8    1
    33    19    20   ar
    34    20    21   ar
    35    21    22    1
    36    22    13   am
    37    21    16   ar
    38     6     1    1
    39     8     1    1
    40    37    25    1
    41    38    27   ar
    42    38    32   ar
    43     9    10    1
    44    22    23    1
@<TRIPOS>MOLECULE
*****
 38 44 0 0 0
SMALL
GASTEIGER

@<TRIPOS>ATOM
      1 C         144.1938  141.9473  159.9108 C.3     1  UNL1        0.0700
      2 C         143.6727  140.5531  159.7244 C.3     1  UNL1        0.0193
      3 C         143.5968  139.6181  160.8948 C.3     1  UNL1        0.0286
      4 C         144.0420  140.0772  162.2517 C.3     1  UNL1        0.0933
      5 C         144.5631  141.4713  162.4381 C.3     1  UNL1        0.0286
      6 C         144.6390  142.4064  161.2676 C.3     1  UNL1        0.0193
      7 O         144.1023  140.6255  161.6403 O.3     1  UNL1       -0.3571
      8 C         144.1710  141.4710  160.5821 C.3     1  UNL1        0.1562
      9 N         144.2697  142.8823  158.7403 N.3     1  UNL1       -0.2926
     10 H         145.0073  143.5553  158.9484 H       1  UNL1        0.1236
     11 C         143.0627  143.6747  158.3338 C.3     1  UNL1        0.1152
     12 O         138.9451  145.0336  164.8106 O.2     1  UNL1       -0.2707
     13 C         139.0414  144.4554  163.4299 C.2     1  UNL1        0.2718
     14 C         137.8615  143.7520  162.8274 C.3     1  UNL1        0.2898
     15 O         137.9578  143.1739  161.4466 O.3     1  UNL1       -0.4628
     16 C         139.2340  143.2991  160.6684 C.ar    1  UNL1        0.1708
     17 C         139.3303  142.7209  159.2877 C.ar    1  UNL1        0.0411
     18 C         140.6065  142.8461  158.5095 C.ar    1  UNL1        0.0193
     19 C         141.7865  143.5495  159.1120 C.ar    1  UNL1        0.0765
     20 N         141.6901  144.1277  160.4928 N.ar    1  UNL1       -0.2304
     21 C         140.4139  144.0025  161.2710 C.ar    1  UNL1        0.1682
     22 N         140.3177  144.5806  162.6517 N.am    1  UNL1       -0.2639
     23 H         141.0921  145.0422  163.0471 H       1  UNL1        0.1565
     24 C         143.9661  139.1421  163.4221 C.3     1  UNL1        0.0336
     25 C         142.8253  139.2441  164.3907 C.3     1  UNL1        0.0511
     26 C         142.8615  139.9245  165.7270 C.3     1  UNL1        0.1136
     27 N         141.5067  139.7845  166.3554 N.ar    1  UNL1       -0.2940
     28 C         140.9556  140.2562  167.6683 C.ar    1  UNL1        0.2610
     29 O         141.8291  141.0232  168.6162 O.2     1  UNL1       -0.2670
     30 C         139.5309  139.9611  168.0332 C.ar    1  UNL1        0.0623
     31 C         138.6574  139.1941  167.0852 C.ar    1  UNL1        0.0254
     32 C         139.2085  138.7223  165.7723 C.ar    1  UNL1        0.0971
     33 N         138.5755  137.9468  164.6461 N.ar    1  UNL1       -0.2400
     34 C         139.2623  137.5418  163.3756 C.ar    1  UNL1        0.1281
     35 C         140.6986  137.9101  163.1492 C.ar    1  UNL1        0.1566
     36 F         141.3854  137.5050  161.8787 F       1  UNL1       -0.2028
     37 C         141.4481  138.6835  164.1932 C.ar    1  UNL1        0.0258
     38 C         140.6331  139.0175  165.4074 C.ar    1  UNL1        0.0783
@<TRIPOS>BOND
     1    12    13    2
     2    13    14    1
     3    14    15    1
     4    15    16    1
     5    16    17   ar
     6    17    18   ar
     7    18    19   ar
     8    19    11    1
     9    11     9    1
    10     9     1    1
    11     1     2    1
    12     2     3    1
    13     3     4    1
    14     4    24    1
    15    24    25    1
    16    25    26    1
    17    26    27    1
    18    27    28   ar
    19    28    29    2
    20    28    30   ar
    21    30    31   ar
    22    31    32   ar
    23    32    33   ar
    24    33    34   ar
    25    34    35   ar
    26    35    36    1
    27    35    37   ar
    28    37    38   ar
    29     4     5    1
    30     5     6    1
    31     4     7    1
    32     7     8    1
    33    19    20   ar
    34    20    21   ar
    35    21    22    1
    36    22    13   am
    37    21    16   ar
    38     6     1    1
    39     8     1    1
    40    37    25    1
    41    38    27   ar
    42    38    32   ar
    43     9    10    1
    44    22    23    1
