@<TRIPOS>MOLECULE
*****
 31 36 0 0 0
SMALL
GASTEIGER

@<TRIPOS>ATOM
      1 C         139.8936  140.6044  166.6948 C.ar    1  UNL1        0.0036
      2 C         140.1974  139.2213  166.2001 C.ar    1  UNL1        0.0032
      3 C         139.9397  138.8642  164.7662 C.ar    1  UNL1        0.0366
      4 C         139.3781  139.8901  163.8271 C.ar    1  UNL1        0.1360
      5 C         139.0743  141.2732  164.3217 C.ar    1  UNL1        0.0357
      6 C         139.3320  141.6304  165.7557 C.ar    1  UNL1        0.0008
      7 C         138.5127  142.2991  163.3826 C.3     1  UNL1        0.1580
      8 C         137.9514  143.4245  162.5649 C.3     1  UNL1        0.2351
      9 O         137.8086  144.6206  163.4588 O.2     1  UNL1       -0.4478
     10 C         138.2816  144.2345  164.8289 C.2     1  UNL1        0.2770
     11 N         138.3138  145.1264  166.0344 N.pl3   1  UNL1       -0.3133
     12 N         138.7168  142.7998  164.7818 N.2     1  UNL1       -0.2202
     13 C         138.2549  141.9420  161.9487 C.3     1  UNL1        0.1141
     14 C         138.4116  141.6558  162.2107 C.3     1  UNL1        0.1501
     15 O         138.2469  141.9566  161.9353 O.3     1  UNL1       -0.3532
     16 C         138.4116  141.6558  162.2107 C.3     1  UNL1        0.1501
     17 C         138.5588  140.5589  161.4540 C.3     1  UNL1        0.1395
     18 C         138.0232  141.2899  160.2586 C.3     1  UNL1        0.0404
     19 C         138.1943  140.0538  159.4261 C.3     1  UNL1        0.0072
     20 C         138.7299  139.3229  160.6215 C.3     1  UNL1        0.0404
     21 O         139.1204  139.5330  162.3932 O.3     1  UNL1       -0.4826
     22 H         138.0053  146.0588  165.9653 H       1  UNL1        0.1466
     23 H         138.6434  144.7795  166.8947 H       1  UNL1        0.1466
     24 C         142.6951  143.1279  170.2702 C.3     1  UNL1        0.0327
     25 C         141.5521  142.2233  169.9164 C.ar    1  UNL1       -0.0025
     26 C         140.6668  141.6758  170.9965 C.ar    1  UNL1        0.0970
     27 N         139.5238  140.7712  170.6427 N.ar    1  UNL1       -0.2168
     28 C         139.2660  140.4141  169.2088 C.ar    1  UNL1        0.2222
     29 F         138.1230  139.5095  168.8550 F       1  UNL1       -0.1832
     30 C         140.1513  140.9615  168.1287 C.ar    1  UNL1        0.0457
     31 C         141.2944  141.8662  168.4826 C.ar    1  UNL1        0.0011
@<TRIPOS>BOND
     1    24    25    1
     2    25    26   ar
     3    26    27   ar
     4    27    28   ar
     5    28    29    1
     6    28    30   ar
     7    30     1    1
     8     1     2   ar
     9     2     3   ar
    10     3     4   ar
    11     4     5   ar
    12     5     6   ar
    13     5     7    1
    14     7     8    1
    15     8     9    1
    16     9    10    1
    17    10    11    1
    18    10    12    2
    19     7    13    1
    20    13    14    1
    21    14    15    1
    22    15    16    1
    23    13    17    1
    24    17    18    1
    25    18    19    1
    26    19    20    1
    27    17    21    1
    28    30    31   ar
    29    31    25   ar
    30     6     1   ar
    31    12     7    1
    32    16    13    1
    33    20    17    1
    34    21     4    1
    35    11    22    1
    36    11    23    1
@<TRIPOS>MOLECULE
*****
 31 36 0 0 0
SMALL
GASTEIGER

@<TRIPOS>ATOM
      1 C         141.5703  143.4464  163.7053 C.ar    1  UNL1        0.0036
      2 C         142.8731  143.8080  164.3551 C.ar    1  UNL1        0.0032
      3 C         143.2577  143.1830  165.6633 C.ar    1  UNL1        0.0366
      4 C         142.3395  142.1964  166.3218 C.ar    1  UNL1        0.1360
      5 C         141.0368  141.8348  165.6721 C.ar    1  UNL1        0.0357
      6 C         140.6522  142.4598  164.3639 C.ar    1  UNL1        0.0008
      7 C         140.1187  140.8482  166.3307 C.3     1  UNL1        0.1580
      8 C         139.1037  139.8829  166.8674 C.3     1  UNL1        0.2351
      9 O         137.9599  139.8265  165.8986 O.2     1  UNL1       -0.4478
     10 C         138.2679  140.7570  164.7631 C.2     1  UNL1        0.2770
     11 N         137.3951  141.0113  163.5701 N.pl3   1  UNL1       -0.3133
     12 N         139.6021  141.3884  165.0301 N.2     1  UNL1       -0.2202
     13 C         140.5033  140.2233  167.6389 C.3     1  UNL1        0.1141
     14 C         140.7594  140.4985  167.4551 C.3     1  UNL1        0.1501
     15 O         140.4902  140.2092  167.6483 O.3     1  UNL1       -0.3532
     16 C         140.7594  140.4985  167.4551 C.3     1  UNL1        0.1501
     17 C         141.8060  140.5849  168.2885 C.3     1  UNL1        0.1395
     18 C         141.1713  139.5925  169.2173 C.3     1  UNL1        0.0404
     19 C         142.3499  139.7010  170.1387 C.3     1  UNL1        0.0072
     20 C         142.9846  140.6933  169.2100 C.3     1  UNL1        0.0404
     21 O         142.7241  141.5715  167.6300 O.3     1  UNL1       -0.4826
     22 H         136.5318  140.5461  163.4836 H       1  UNL1        0.1466
     23 H         137.6856  141.6435  162.8735 H       1  UNL1        0.1466
     24 C         142.3228  144.0131  158.5953 C.3     1  UNL1        0.0327
     25 C         141.5620  144.3548  159.8421 C.ar    1  UNL1       -0.0025
     26 C         140.4167  145.3214  159.7806 C.ar    1  UNL1        0.0970
     27 N         139.6559  145.6630  161.0274 N.ar    1  UNL1       -0.2168
     28 C         140.0404  145.0380  162.3357 C.ar    1  UNL1        0.2222
     29 F         139.2796  145.3797  163.5824 F       1  UNL1       -0.1832
     30 C         141.1858  144.0714  162.3971 C.ar    1  UNL1        0.0457
     31 C         141.9466  143.7298  161.1503 C.ar    1  UNL1        0.0011
@<TRIPOS>BOND
     1    24    25    1
     2    25    26   ar
     3    26    27   ar
     4    27    28   ar
     5    28    29    1
     6    28    30   ar
     7    30     1    1
     8     1     2   ar
     9     2     3   ar
    10     3     4   ar
    11     4     5   ar
    12     5     6   ar
    13     5     7    1
    14     7     8    1
    15     8     9    1
    16     9    10    1
    17    10    11    1
    18    10    12    2
    19     7    13    1
    20    13    14    1
    21    14    15    1
    22    15    16    1
    23    13    17    1
    24    17    18    1
    25    18    19    1
    26    19    20    1
    27    17    21    1
    28    30    31   ar
    29    31    25   ar
    30     6     1   ar
    31    12     7    1
    32    16    13    1
    33    20    17    1
    34    21     4    1
    35    11    22    1
    36    11    23    1
@<TRIPOS>MOLECULE
*****
 31 36 0 0 0
SMALL
GASTEIGER

@<TRIPOS>ATOM
      1 C         142.5382  140.8299  163.5896 C.ar    1  UNL1        0.0036
      2 C         143.3608  141.8557  164.3117 C.ar    1  UNL1        0.0032
      3 C         143.0295  142.2209  165.7283 C.ar    1  UNL1        0.0366
      4 C         141.8757  141.5604  166.4229 C.ar    1  UNL1        0.1360
      5 C         141.0532  140.5347  165.7010 C.ar    1  UNL1        0.0357
      6 C         141.3844  140.1694  164.2843 C.ar    1  UNL1        0.0008
      7 C         139.8994  139.8742  166.3956 C.3     1  UNL1        0.1580
      8 C         138.7223  139.1334  166.9574 C.3     1  UNL1        0.2351
      9 O         138.2049  138.2104  165.8940 O.2     1  UNL1       -0.4478
     10 C         139.0623  138.3809  164.6750 C.2     1  UNL1        0.2770
     11 N         138.9008  137.6513  163.3745 N.pl3   1  UNL1       -0.3133
     12 N         140.1096  139.4092  164.9850 N.2     1  UNL1       -0.2202
     13 C         139.5681  140.2394  167.8122 C.3     1  UNL1        0.1141
     14 C         139.8900  140.4237  167.6184 C.3     1  UNL1        0.1501
     15 O         139.5517  140.2300  167.8221 O.3     1  UNL1       -0.3532
     16 C         139.8900  140.4237  167.6184 C.3     1  UNL1        0.1501
     17 C         140.3906  141.2652  168.5342 C.3     1  UNL1        0.1395
     18 C         139.3496  140.8351  169.5248 C.3     1  UNL1        0.0404
     19 C         139.9221  141.7818  170.5377 C.3     1  UNL1        0.0072
     20 C         140.9632  142.2119  169.5471 C.3     1  UNL1        0.0404
     21 O         141.5444  141.9257  167.8395 O.3     1  UNL1       -0.4826
     22 H         138.1788  136.9907  163.2670 H       1  UNL1        0.1466
     23 H         139.5169  137.8329  162.6284 H       1  UNL1        0.1466
     24 C         141.8532  141.5237  158.4858 C.3     1  UNL1        0.0327
     25 C         142.5270  140.8116  159.6211 C.ar    1  UNL1       -0.0025
     26 C         143.5320  139.7342  159.3397 C.ar    1  UNL1        0.0970
     27 N         144.2058  139.0221  160.4750 N.ar    1  UNL1       -0.2168
     28 C         143.8746  139.3873  161.8917 C.ar    1  UNL1        0.2222
     29 F         144.5484  138.6752  163.0269 F       1  UNL1       -0.1832
     30 C         142.8695  140.4647  162.1730 C.ar    1  UNL1        0.0457
     31 C         142.1957  141.1768  161.0377 C.ar    1  UNL1        0.0011
@<TRIPOS>BOND
     1    24    25    1
     2    25    26   ar
     3    26    27   ar
     4    27    28   ar
     5    28    29    1
     6    28    30   ar
     7    30     1    1
     8     1     2   ar
     9     2     3   ar
    10     3     4   ar
    11     4     5   ar
    12     5     6   ar
    13     5     7    1
    14     7     8    1
    15     8     9    1
    16     9    10    1
    17    10    11    1
    18    10    12    2
    19     7    13    1
    20    13    14    1
    21    14    15    1
    22    15    16    1
    23    13    17    1
    24    17    18    1
    25    18    19    1
    26    19    20    1
    27    17    21    1
    28    30    31   ar
    29    31    25   ar
    30     6     1   ar
    31    12     7    1
    32    16    13    1
    33    20    17    1
    34    21     4    1
    35    11    22    1
    36    11    23    1
@<TRIPOS>MOLECULE
*****
 31 36 0 0 0
SMALL
GASTEIGER

@<TRIPOS>ATOM
      1 C         142.2682  140.7447  166.5340 C.ar    1  UNL1        0.0036
      2 C         143.5463  141.2642  165.9452 C.ar    1  UNL1        0.0032
      3 C         143.9225  140.9088  164.5374 C.ar    1  UNL1        0.0366
      4 C         143.0206  140.0338  163.7182 C.ar    1  UNL1        0.1360
      5 C         141.7425  139.5143  164.3069 C.ar    1  UNL1        0.0357
      6 C         141.3663  139.8697  165.7149 C.ar    1  UNL1        0.0008
      7 C         140.8406  138.6393  163.4878 C.3     1  UNL1        0.1580
      8 C         139.8438  137.7592  162.7937 C.3     1  UNL1        0.2351
      9 O         138.7220  137.4846  163.7510 O.2     1  UNL1       -0.4478
     10 C         139.0255  138.1949  165.0367 C.2     1  UNL1        0.2770
     11 N         138.1700  138.1922  166.2687 N.pl3   1  UNL1       -0.3133
     12 N         140.3349  138.9086  164.8742 N.2     1  UNL1       -0.2202
     13 C         141.2168  138.2838  162.0800 C.3     1  UNL1        0.1141
     14 C         141.4684  138.5279  162.3085 C.3     1  UNL1        0.1501
     15 O         141.2039  138.2713  162.0683 O.3     1  UNL1       -0.3532
     16 C         141.4684  138.5279  162.3085 C.3     1  UNL1        0.1501
     17 C         142.4948  138.8033  161.4912 C.3     1  UNL1        0.1395
     18 C         141.8709  137.9827  160.4016 C.3     1  UNL1        0.0404
     19 C         143.0268  138.3006  159.5001 C.3     1  UNL1        0.0072
     20 C         143.6508  139.1213  160.5897 C.3     1  UNL1        0.0404
     21 O         143.3967  139.6783  162.3104 O.3     1  UNL1       -0.4826
     22 H         137.3227  137.6911  166.2785 H       1  UNL1        0.1466
     23 H         138.4559  138.6916  167.0676 H       1  UNL1        0.1466
     24 C         140.2845  144.1258  169.9447 C.3     1  UNL1        0.0327
     25 C         140.9002  142.7907  169.6472 C.ar    1  UNL1       -0.0025
     26 C         141.1398  141.8111  170.7577 C.ar    1  UNL1        0.0970
     27 N         141.7555  140.4761  170.4602 N.ar    1  UNL1       -0.2168
     28 C         142.1316  140.1206  169.0523 C.ar    1  UNL1        0.2222
     29 F         142.7473  138.7855  168.7548 F       1  UNL1       -0.1832
     30 C         141.8921  141.1002  167.9419 C.ar    1  UNL1        0.0457
     31 C         141.2764  142.4353  168.2394 C.ar    1  UNL1        0.0011
@<TRIPOS>BOND
     1    24    25    1
     2    25    26   ar
     3    26    27   ar
     4    27    28   ar
     5    28    29    1
     6    28    30   ar
     7    30     1    1
     8     1     2   ar
     9     2     3   ar
    10     3     4   ar
    11     4     5   ar
    12     5     6   ar
    13     5     7    1
    14     7     8    1
    15     8     9    1
    16     9    10    1
    17    10    11    1
    18    10    12    2
    19     7    13    1
    20    13    14    1
    21    14    15    1
    22    15    16    1
    23    13    17    1
    24    17    18    1
    25    18    19    1
    26    19    20    1
    27    17    21    1
    28    30    31   ar
    29    31    25   ar
    30     6     1   ar
    31    12     7    1
    32    16    13    1
    33    20    17    1
    34    21     4    1
    35    11    22    1
    36    11    23    1
@<TRIPOS>MOLECULE
*****
 31 36 0 0 0
SMALL
GASTEIGER

@<TRIPOS>ATOM
      1 C         140.6322  141.6302  166.5281 C.ar    1  UNL1        0.0036
      2 C         139.3070  141.1316  166.0326 C.ar    1  UNL1        0.0032
      3 C         138.8884  141.3949  164.6165 C.ar    1  UNL1        0.0366
      4 C         139.7949  142.1570  163.6958 C.ar    1  UNL1        0.1360
      5 C         141.1200  142.6557  164.1913 C.ar    1  UNL1        0.0357
      6 C         141.5386  142.3923  165.6074 C.ar    1  UNL1        0.0008
      7 C         142.0264  143.4177  163.2706 C.3     1  UNL1        0.1580
      8 C         143.0332  144.1898  162.4704 C.3     1  UNL1        0.2351
      9 O         144.2064  144.4812  163.3585 O.2     1  UNL1       -0.4478
     10 C         143.9248  143.8891  164.7076 C.2     1  UNL1        0.2770
     11 N         144.8312  143.9446  165.9014 N.pl3   1  UNL1       -0.3133
     12 N         142.5775  143.2319  164.6534 N.2     1  UNL1       -0.2202
     13 C         141.6078  143.6811  161.8545 C.3     1  UNL1        0.1141
     14 C         141.3549  143.4685  162.1114 C.3     1  UNL1        0.1501
     15 O         141.6208  143.6920  161.8414 O.3     1  UNL1       -0.3532
     16 C         141.3549  143.4685  162.1114 C.3     1  UNL1        0.1501
     17 C         140.2828  143.1824  161.3591 C.3     1  UNL1        0.1395
     18 C         140.8977  143.8834  160.1841 C.3     1  UNL1        0.0404
     19 C         139.6907  143.5549  159.3563 C.3     1  UNL1        0.0072
     20 C         139.0757  142.8540  160.5313 C.3     1  UNL1        0.0404
     21 O         139.3763  142.4204  162.2797 O.3     1  UNL1       -0.4826
     22 H         145.7009  144.4016  165.8383 H       1  UNL1        0.1466
     23 H         144.5564  143.5239  166.7480 H       1  UNL1        0.1466
     24 C         142.7796  138.5019  170.0779 C.3     1  UNL1        0.0327
     25 C         142.1245  139.8026  169.7191 C.ar    1  UNL1       -0.0025
     26 C         141.8880  140.8400  170.7764 C.ar    1  UNL1        0.0970
     27 N         141.2329  142.1408  170.4176 N.ar    1  UNL1       -0.2168
     28 C         140.8143  142.4043  169.0015 C.ar    1  UNL1        0.2222
     29 F         140.1592  143.7050  168.6427 F       1  UNL1       -0.1832
     30 C         141.0508  141.3669  167.9442 C.ar    1  UNL1        0.0457
     31 C         141.7059  140.0660  168.3030 C.ar    1  UNL1        0.0011
@<TRIPOS>BOND
     1    24    25    1
     2    25    26   ar
     3    26    27   ar
     4    27    28   ar
     5    28    29    1
     6    28    30   ar
     7    30     1    1
     8     1     2   ar
     9     2     3   ar
    10     3     4   ar
    11     4     5   ar
    12     5     6   ar
    13     5     7    1
    14     7     8    1
    15     8     9    1
    16     9    10    1
    17    10    11    1
    18    10    12    2
    19     7    13    1
    20    13    14    1
    21    14    15    1
    22    15    16    1
    23    13    17    1
    24    17    18    1
    25    18    19    1
    26    19    20    1
    27    17    21    1
    28    30    31   ar
    29    31    25   ar
    30     6     1   ar
    31    12     7    1
    32    16    13    1
    33    20    17    1
    34    21     4    1
    35    11    22    1
    36    11    23    1
@<TRIPOS>MOLECULE
*****
 31 36 0 0 0
SMALL
GASTEIGER

@<TRIPOS>ATOM
      1 C         141.7578  140.2920  166.8815 C.ar    1  UNL1        0.0036
      2 C         140.9711  139.0672  166.5192 C.ar    1  UNL1        0.0032
      3 C         141.0998  138.4714  165.1487 C.ar    1  UNL1        0.0366
      4 C         142.0151  139.1003  164.1404 C.ar    1  UNL1        0.1360
      5 C         142.8017  140.3250  164.5026 C.ar    1  UNL1        0.0357
      6 C         142.6731  140.9209  165.8732 C.ar    1  UNL1        0.0008
      7 C         143.7171  140.9539  163.4943 C.3     1  UNL1        0.1580
      8 C         144.6671  141.6893  162.5961 C.3     1  UNL1        0.2351
      9 O         145.2290  142.8482  163.3650 O.2     1  UNL1       -0.4478
     10 C         144.6262  142.8292  164.7385 C.2     1  UNL1        0.2770
     11 N         144.9083  143.8087  165.8387 N.pl3   1  UNL1       -0.3133
     12 N         143.6918  141.6584  164.8184 N.2     1  UNL1       -0.2202
     13 C         143.8458  140.3581  162.1238 C.3     1  UNL1        0.1141
     14 C         143.5904  140.1826  162.4051 C.3     1  UNL1        0.1501
     15 O         143.8588  140.3671  162.1094 O.3     1  UNL1       -0.3532
     16 C         143.5904  140.1826  162.4051 C.3     1  UNL1        0.1501
     17 C         143.0591  139.1334  161.7616 C.3     1  UNL1        0.1395
     18 C         143.8449  139.4688  160.5286 C.3     1  UNL1        0.0404
     19 C         143.2411  138.2907  159.8232 C.3     1  UNL1        0.0072
     20 C         142.4553  137.9553  161.0562 C.3     1  UNL1        0.0404
     21 O         142.1438  138.5045  162.7699 O.3     1  UNL1       -0.4826
     22 H         145.5409  144.5482  165.6893 H       1  UNL1        0.1466
     23 H         144.4609  143.7122  166.7104 H       1  UNL1        0.1466
     24 C         140.3199  144.2205  169.9636 C.3     1  UNL1        0.0327
     25 C         140.9101  142.8521  169.7931 C.ar    1  UNL1       -0.0025
     26 C         141.3717  142.0795  170.9932 C.ar    1  UNL1        0.0970
     27 N         141.9619  140.7111  170.8227 N.ar    1  UNL1       -0.2168
     28 C         142.0906  140.1152  169.4521 C.ar    1  UNL1        0.2222
     29 F         142.6808  138.7469  169.2816 F       1  UNL1       -0.1832
     30 C         141.6291  140.8878  168.2520 C.ar    1  UNL1        0.0457
     31 C         141.0388  142.2563  168.4226 C.ar    1  UNL1        0.0011
@<TRIPOS>BOND
     1    24    25    1
     2    25    26   ar
     3    26    27   ar
     4    27    28   ar
     5    28    29    1
     6    28    30   ar
     7    30     1    1
     8     1     2   ar
     9     2     3   ar
    10     3     4   ar
    11     4     5   ar
    12     5     6   ar
    13     5     7    1
    14     7     8    1
    15     8     9    1
    16     9    10    1
    17    10    11    1
    18    10    12    2
    19     7    13    1
    20    13    14    1
    21    14    15    1
    22    15    16    1
    23    13    17    1
    24    17    18    1
    25    18    19    1
    26    19    20    1
    27    17    21    1
    28    30    31   ar
    29    31    25   ar
    30     6     1   ar
    31    12     7    1
    32    16    13    1
    33    20    17    1
    34    21     4    1
    35    11    22    1
    36    11    23    1
@<TRIPOS>MOLECULE
*****
 31 36 0 0 0
SMALL
GASTEIGER

@<TRIPOS>ATOM
      1 C         141.1950  142.6098  163.6950 C.ar    1  UNL1        0.0036
      2 C         140.1400  143.3958  164.4157 C.ar    1  UNL1        0.0032
      3 C         139.8092  143.0744  165.8430 C.ar    1  UNL1        0.0366
      4 C         140.5332  141.9671  166.5497 C.ar    1  UNL1        0.1360
      5 C         141.5881  141.1810  165.8291 C.ar    1  UNL1        0.0357
      6 C         141.9190  141.5024  164.4017 C.ar    1  UNL1        0.0008
      7 C         142.3122  140.0736  166.5358 C.3     1  UNL1        0.1580
      8 C         143.1160  138.9443  167.1090 C.3     1  UNL1        0.2351
      9 O         144.0492  138.4516  166.0428 O.2     1  UNL1       -0.4478
     10 C         143.8222  139.2765  164.8108 C.2     1  UNL1        0.2770
     11 N         144.5421  139.1255  163.5037 N.pl3   1  UNL1       -0.3133
     12 N         142.7487  140.2790  165.1154 N.2     1  UNL1       -0.2202
     13 C         141.9814  139.7523  167.9631 C.3     1  UNL1        0.1141
     14 C         141.7794  140.0612  167.7659 C.3     1  UNL1        0.1501
     15 O         141.9917  139.7365  167.9732 O.3     1  UNL1       -0.3532
     16 C         141.7794  140.0612  167.7659 C.3     1  UNL1        0.1501
     17 C         140.9265  140.5383  168.6837 C.3     1  UNL1        0.1395
     18 C         141.4187  139.5380  169.6873 C.3     1  UNL1        0.0404
     19 C         140.4585  140.0838  170.7023 C.3     1  UNL1        0.0072
     20 C         139.9662  141.0840  169.6987 C.3     1  UNL1        0.0404
     21 O         140.2024  141.6457  167.9770 O.3     1  UNL1       -0.4826
     22 H         145.2353  138.4340  163.4005 H       1  UNL1        0.1466
     23 H         144.3216  139.7178  162.7489 H       1  UNL1        0.1466
     24 C         141.3436  141.2259  158.6888 C.3     1  UNL1        0.0327
     25 C         141.6001  142.2392  159.7646 C.ar    1  UNL1       -0.0025
     26 C         142.1875  143.5739  159.4131 C.ar    1  UNL1        0.0970
     27 N         142.4441  144.5873  160.4889 N.ar    1  UNL1       -0.2168
     28 C         142.1132  144.2659  161.9162 C.ar    1  UNL1        0.2222
     29 F         142.3698  145.2792  162.9920 F       1  UNL1       -0.1832
     30 C         141.5258  142.9312  162.2677 C.ar    1  UNL1        0.0457
     31 C         141.2693  141.9179  161.1919 C.ar    1  UNL1        0.0011
@<TRIPOS>BOND
     1    24    25    1
     2    25    26   ar
     3    26    27   ar
     4    27    28   ar
     5    28    29    1
     6    28    30   ar
     7    30     1    1
     8     1     2   ar
     9     2     3   ar
    10     3     4   ar
    11     4     5   ar
    12     5     6   ar
    13     5     7    1
    14     7     8    1
    15     8     9    1
    16     9    10    1
    17    10    11    1
    18    10    12    2
    19     7    13    1
    20    13    14    1
    21    14    15    1
    22    15    16    1
    23    13    17    1
    24    17    18    1
    25    18    19    1
    26    19    20    1
    27    17    21    1
    28    30    31   ar
    29    31    25   ar
    30     6     1   ar
    31    12     7    1
    32    16    13    1
    33    20    17    1
    34    21     4    1
    35    11    22    1
    36    11    23    1
@<TRIPOS>MOLECULE
*****
 31 36 0 0 0
SMALL
GASTEIGER

@<TRIPOS>ATOM
      1 C         141.5158  140.0065  166.4644 C.ar    1  UNL1        0.0036
      2 C         142.8513  139.3254  166.4122 C.ar    1  UNL1        0.0032
      3 C         143.3544  138.7593  165.1175 C.ar    1  UNL1        0.0366
      4 C         142.5221  138.8743  163.8749 C.ar    1  UNL1        0.1360
      5 C         141.1867  139.5553  163.9270 C.ar    1  UNL1        0.0357
      6 C         140.6835  140.1214  165.2218 C.ar    1  UNL1        0.0008
      7 C         140.3544  139.6703  162.6845 C.3     1  UNL1        0.1580
      8 C         139.4156  139.8599  161.5300 C.3     1  UNL1        0.2351
      9 O         138.2042  140.5881  162.0323 O.2     1  UNL1       -0.4478
     10 C         138.3942  140.8486  163.4972 C.2     1  UNL1        0.2770
     11 N         137.4256  141.5526  164.4004 N.pl3   1  UNL1       -0.3133
     12 N         139.7231  140.2813  163.9003 N.2     1  UNL1       -0.2202
     13 C         140.8575  139.1042  161.3897 C.3     1  UNL1        0.1141
     14 C         141.0897  139.0721  161.7364 C.3     1  UNL1        0.1501
     15 O         140.8456  139.1058  161.3720 O.3     1  UNL1       -0.3532
     16 C         141.0897  139.0721  161.7364 C.3     1  UNL1        0.1501
     17 C         142.1929  138.4231  161.3376 C.3     1  UNL1        0.1395
     18 C         141.6637  138.3478  159.9360 C.3     1  UNL1        0.0404
     19 C         142.9045  137.6225  159.5064 C.3     1  UNL1        0.0072
     20 C         143.4336  137.6979  160.9080 C.3     1  UNL1        0.0404
     21 O         143.0252  138.3082  162.5802 O.3     1  UNL1       -0.4826
     22 H         136.5741  141.8915  164.0406 H       1  UNL1        0.1466
     23 H         137.6413  141.6759  165.3530 H       1  UNL1        0.1466
     24 C         138.0539  139.9909  170.3392 C.3     1  UNL1        0.0327
     25 C         139.2817  140.5648  169.6966 C.ar    1  UNL1       -0.0025
     26 C         140.0065  141.7047  170.3487 C.ar    1  UNL1        0.0970
     27 N         141.2343  142.2786  169.7061 N.ar    1  UNL1       -0.2168
     28 C         141.7375  141.7125  168.4113 C.ar    1  UNL1        0.2222
     29 F         142.9653  142.2864  167.7686 F       1  UNL1       -0.1832
     30 C         141.0127  140.5726  167.7592 C.ar    1  UNL1        0.0457
     31 C         139.7848  139.9987  168.4019 C.ar    1  UNL1        0.0011
@<TRIPOS>BOND
     1    24    25    1
     2    25    26   ar
     3    26    27   ar
     4    27    28   ar
     5    28    29    1
     6    28    30   ar
     7    30     1    1
     8     1     2   ar
     9     2     3   ar
    10     3     4   ar
    11     4     5   ar
    12     5     6   ar
    13     5     7    1
    14     7     8    1
    15     8     9    1
    16     9    10    1
    17    10    11    1
    18    10    12    2
    19     7    13    1
    20    13    14    1
    21    14    15    1
    22    15    16    1
    23    13    17    1
    24    17    18    1
    25    18    19    1
    26    19    20    1
    27    17    21    1
    28    30    31   ar
    29    31    25   ar
    30     6     1   ar
    31    12     7    1
    32    16    13    1
    33    20    17    1
    34    21     4    1
    35    11    22    1
    36    11    23    1
@<TRIPOS>MOLECULE
*****
 31 36 0 0 0
SMALL
GASTEIGER

@<TRIPOS>ATOM
      1 C         142.5899  142.1667  164.1906 C.ar    1  UNL1        0.0036
      2 C         143.5404  142.7349  165.2025 C.ar    1  UNL1        0.0032
      3 C         143.3022  142.5073  166.6658 C.ar    1  UNL1        0.0366
      4 C         142.1136  141.7115  167.1173 C.ar    1  UNL1        0.1360
      5 C         141.1632  141.1433  166.1056 C.ar    1  UNL1        0.0357
      6 C         141.4013  141.3709  164.6421 C.ar    1  UNL1        0.0008
      7 C         139.9745  140.3475  166.5571 C.3     1  UNL1        0.1580
      8 C         138.7494  139.5355  166.8568 C.3     1  UNL1        0.2351
      9 O         138.1000  139.1777  165.5528 O.2     1  UNL1       -0.4478
     10 C         138.9237  139.7685  164.4472 C.2     1  UNL1        0.2770
     11 N         138.6390  139.6562  162.9789 N.pl3   1  UNL1       -0.3133
     12 N         140.0823  140.4915  165.0679 N.2     1  UNL1       -0.2202
     13 C         139.7364  140.1199  168.0204 C.3     1  UNL1        0.1141
     14 C         140.0680  140.3419  167.8945 C.3     1  UNL1        0.1501
     15 O         139.7194  140.1085  168.0269 O.3     1  UNL1       -0.3532
     16 C         140.0680  140.3419  167.8945 C.3     1  UNL1        0.1501
     17 C         140.6868  140.6880  169.0322 C.3     1  UNL1        0.1395
     18 C         139.6452  139.9703  169.8383 C.3     1  UNL1        0.0404
     19 C         140.3500  140.3661  171.1019 C.3     1  UNL1        0.0072
     20 C         141.3917  141.0839  170.2957 C.3     1  UNL1        0.0404
     21 O         141.8755  141.4838  168.5807 O.3     1  UNL1       -0.4826
     22 H         137.8492  139.1578  162.6673 H       1  UNL1        0.1466
     23 H         139.2419  140.0808  162.3266 H       1  UNL1        0.1466
     24 C         143.7251  140.3067  159.4734 C.3     1  UNL1        0.0327
     25 C         143.3957  141.4643  160.3686 C.ar    1  UNL1       -0.0025
     26 C         143.3044  142.8495  159.8005 C.ar    1  UNL1        0.0970
     27 N         142.9750  144.0071  160.6956 N.ar    1  UNL1       -0.2168
     28 C         142.7368  143.7796  162.1591 C.ar    1  UNL1        0.2222
     29 F         142.4074  144.9372  163.0542 F       1  UNL1       -0.1832
     30 C         142.8281  142.3943  162.7272 C.ar    1  UNL1        0.0457
     31 C         143.1575  141.2367  161.8320 C.ar    1  UNL1        0.0011
@<TRIPOS>BOND
     1    24    25    1
     2    25    26   ar
     3    26    27   ar
     4    27    28   ar
     5    28    29    1
     6    28    30   ar
     7    30     1    1
     8     1     2   ar
     9     2     3   ar
    10     3     4   ar
    11     4     5   ar
    12     5     6   ar
    13     5     7    1
    14     7     8    1
    15     8     9    1
    16     9    10    1
    17    10    11    1
    18    10    12    2
    19     7    13    1
    20    13    14    1
    21    14    15    1
    22    15    16    1
    23    13    17    1
    24    17    18    1
    25    18    19    1
    26    19    20    1
    27    17    21    1
    28    30    31   ar
    29    31    25   ar
    30     6     1   ar
    31    12     7    1
    32    16    13    1
    33    20    17    1
    34    21     4    1
    35    11    22    1
    36    11    23    1
