@<TRIPOS>MOLECULE
*****
 28 31 0 0 0
SMALL
GASTEIGER

@<TRIPOS>ATOM
      1 C         142.4250  142.3061  165.2010 C.3     1  UNL1        0.1686
      2 C         143.6600  143.1068  164.9117 C.3     1  UNL1        0.0595
      3 C         144.8920  142.4247  164.3952 C.3     1  UNL1        0.0611
      4 C         145.8430  141.3687  163.9151 C.3     1  UNL1        0.0175
      5 C         145.1283  140.0504  163.9510 C.3     1  UNL1        0.0175
      6 C         143.7356  140.2917  164.4533 C.3     1  UNL1        0.0611
      7 C         142.4221  140.8234  164.9738 C.3     1  UNL1        0.0595
      8 N         143.5896  141.7591  164.7278 N.3     1  UNL1       -0.2747
      9 O         141.1928  142.9882  165.7175 O.3     1  UNL1       -0.4791
     10 C         139.6476  144.9581  162.6383 C.ar    1  UNL1        0.0561
     11 C         138.1852  144.6871  162.8334 C.ar    1  UNL1        0.0047
     12 C         137.7254  143.8497  163.9899 C.ar    1  UNL1        0.0033
     13 C         138.7279  143.2834  164.9512 C.ar    1  UNL1        0.0369
     14 C         140.1902  143.5545  164.7561 C.ar    1  UNL1        0.1385
     15 C         140.6501  144.3918  163.5997 C.ar    1  UNL1        0.0414
     16 N         141.4444  145.5366  160.8532 N.am    1  UNL1       -0.3253
     17 C         140.1073  145.7955  161.4819 C.2     1  UNL1        0.2428
     18 O         139.2300  146.8919  160.9541 O.2     1  UNL1       -0.2704
     19 H         141.7462  146.0862  160.0942 H       1  UNL1        0.1453
     20 H         142.0202  144.8171  161.1996 H       1  UNL1        0.1453
     21 C         142.3575  142.4412  165.2443 C.3     1  UNL1        0.0767
     22 C         141.5965  141.8467  166.3921 C.3     1  UNL1        0.0437
     23 C         141.8965  142.2812  167.7960 C.ar    1  UNL1       -0.0208
     24 C         143.2511  142.0251  168.3872 C.ar    1  UNL1       -0.0042
     25 C         143.5512  142.4595  169.7912 C.ar    1  UNL1       -0.0003
     26 C         142.4966  143.1501  170.6041 C.ar    1  UNL1       -0.0000
     27 C         141.1419  143.4062  170.0131 C.ar    1  UNL1       -0.0003
     28 C         140.8418  142.9718  168.6091 C.ar    1  UNL1       -0.0042
@<TRIPOS>BOND
     1    16    17   am
     2    17    18    2
     3    17    10    1
     4    10    11   ar
     5    11    12   ar
     6    12    13   ar
     7    13    14   ar
     8    14     9    1
     9     1     9    1
    10     1     2    1
    11     3     2    1
    12     3     4    1
    13     4     5    1
    14     6     5    1
    15     6     7    1
    16     6     8    1
    17     8    21    1
    18    21    22    1
    19    22    23    1
    20    23    24   ar
    21    24    25   ar
    22    25    26   ar
    23    26    27   ar
    24    27    28   ar
    25    14    15   ar
    26    15    10   ar
    27     7     1    1
    28    28    23   ar
    29     8     3    1
    30    16    19    1
    31    16    20    1
@<TRIPOS>MOLECULE
*****
 28 31 0 0 0
SMALL
GASTEIGER

@<TRIPOS>ATOM
      1 C         142.4580  142.2043  165.3250 C.3     1  UNL1        0.1686
      2 C         142.4276  140.9131  164.5624 C.3     1  UNL1        0.0595
      3 C         143.6283  140.4786  163.7751 C.3     1  UNL1        0.0611
      4 C         144.9952  140.4486  163.1581 C.3     1  UNL1        0.0175
      5 C         145.7234  141.6887  163.5844 C.3     1  UNL1        0.0175
      6 C         144.8066  142.4852  164.4647 C.3     1  UNL1        0.0611
      7 C         143.6890  143.0611  165.3005 C.3     1  UNL1        0.0595
      8 N         143.5117  141.7373  164.5827 N.3     1  UNL1       -0.2747
      9 O         141.2573  142.6389  166.1123 O.3     1  UNL1       -0.4791
     10 C         140.7522  141.1111  169.7400 C.ar    1  UNL1        0.0561
     11 C         139.7131  140.0649  169.4649 C.ar    1  UNL1        0.0047
     12 C         139.1888  139.8767  168.0722 C.ar    1  UNL1        0.0033
     13 C         139.7035  140.7347  166.9547 C.ar    1  UNL1        0.0369
     14 C         140.7426  141.7809  167.2299 C.ar    1  UNL1        0.1385
     15 C         141.2669  141.9691  168.6225 C.ar    1  UNL1        0.0414
     16 N         142.5049  140.5624  171.5777 N.am    1  UNL1       -0.3253
     17 C         141.2765  141.2993  171.1327 C.2     1  UNL1        0.2428
     18 O         140.5724  142.2245  172.0806 O.2     1  UNL1       -0.2704
     19 H         142.8491  140.6859  172.4917 H       1  UNL1        0.1453
     20 H         142.9671  139.9552  170.9556 H       1  UNL1        0.1453
     21 C         142.3111  142.1718  165.3699 C.3     1  UNL1        0.0767
     22 C         141.6975  143.5177  165.1205 C.3     1  UNL1        0.0437
     23 C         140.4118  143.6257  164.3556 C.ar    1  UNL1       -0.0208
     24 C         139.1649  144.0923  165.0466 C.ar    1  UNL1       -0.0042
     25 C         137.8791  144.2003  164.2817 C.ar    1  UNL1       -0.0003
     26 C         137.8402  143.8417  162.8258 C.ar    1  UNL1       -0.0000
     27 C         139.0870  143.3751  162.1347 C.ar    1  UNL1       -0.0003
     28 C         140.3728  143.2670  162.8995 C.ar    1  UNL1       -0.0042
@<TRIPOS>BOND
     1    16    17   am
     2    17    18    2
     3    17    10    1
     4    10    11   ar
     5    11    12   ar
     6    12    13   ar
     7    13    14   ar
     8    14     9    1
     9     1     9    1
    10     1     2    1
    11     3     2    1
    12     3     4    1
    13     4     5    1
    14     6     5    1
    15     6     7    1
    16     6     8    1
    17     8    21    1
    18    21    22    1
    19    22    23    1
    20    23    24   ar
    21    24    25   ar
    22    25    26   ar
    23    26    27   ar
    24    27    28   ar
    25    14    15   ar
    26    15    10   ar
    27     7     1    1
    28    28    23   ar
    29     8     3    1
    30    16    19    1
    31    16    20    1
@<TRIPOS>MOLECULE
*****
 28 31 0 0 0
SMALL
GASTEIGER

@<TRIPOS>ATOM
      1 C         139.5461  142.4766  164.9201 C.3     1  UNL1        0.1686
      2 C         140.7451  142.5077  164.0192 C.3     1  UNL1        0.0595
      3 C         140.8547  143.5567  162.9527 C.3     1  UNL1        0.0611
      4 C         140.5508  144.7304  162.0694 C.3     1  UNL1        0.0175
      5 C         139.2297  145.3001  162.4939 C.3     1  UNL1        0.0175
      6 C         138.7171  144.4785  163.6395 C.3     1  UNL1        0.0611
      7 C         138.4569  143.4945  164.7544 C.3     1  UNL1        0.0595
      8 N         139.7215  143.4010  163.9230 N.3     1  UNL1       -0.2747
      9 O         139.4365  141.4276  165.9868 O.3     1  UNL1       -0.4791
     10 C         141.7607  142.2801  169.0885 C.ar    1  UNL1        0.0561
     11 C         142.6411  141.0663  169.1251 C.ar    1  UNL1        0.0047
     12 C         142.4533  139.9729  168.1156 C.ar    1  UNL1        0.0033
     13 C         141.3851  140.0933  167.0695 C.ar    1  UNL1        0.0369
     14 C         140.5047  141.3071  167.0329 C.ar    1  UNL1        0.1385
     15 C         140.6924  142.4006  168.0424 C.ar    1  UNL1        0.0414
     16 N         143.2216  143.4554  170.8869 N.am    1  UNL1       -0.3253
     17 C         141.9485  143.3735  170.0980 C.2     1  UNL1        0.2428
     18 O         140.8630  144.3852  170.3187 O.2     1  UNL1       -0.2704
     19 H         143.3449  144.1731  171.5495 H       1  UNL1        0.1453
     20 H         143.9340  142.7915  170.7421 H       1  UNL1        0.1453
     21 C         139.6118  142.3520  164.9896 C.3     1  UNL1        0.0767
     22 C         138.4438  141.4108  164.9987 C.3     1  UNL1        0.0437
     23 C         138.3954  140.2664  164.0304 C.ar    1  UNL1       -0.0208
     24 C         138.9142  138.9186  164.4356 C.ar    1  UNL1       -0.0042
     25 C         138.8658  137.7740  163.4673 C.ar    1  UNL1       -0.0003
     26 C         138.2985  137.9772  162.0937 C.ar    1  UNL1       -0.0000
     27 C         137.7797  139.3250  161.6883 C.ar    1  UNL1       -0.0003
     28 C         137.8281  140.4696  162.6566 C.ar    1  UNL1       -0.0042
@<TRIPOS>BOND
     1    16    17   am
     2    17    18    2
     3    17    10    1
     4    10    11   ar
     5    11    12   ar
     6    12    13   ar
     7    13    14   ar
     8    14     9    1
     9     1     9    1
    10     1     2    1
    11     3     2    1
    12     3     4    1
    13     4     5    1
    14     6     5    1
    15     6     7    1
    16     6     8    1
    17     8    21    1
    18    21    22    1
    19    22    23    1
    20    23    24   ar
    21    24    25   ar
    22    25    26   ar
    23    26    27   ar
    24    27    28   ar
    25    14    15   ar
    26    15    10   ar
    27     7     1    1
    28    28    23   ar
    29     8     3    1
    30    16    19    1
    31    16    20    1
@<TRIPOS>MOLECULE
*****
 28 31 0 0 0
SMALL
GASTEIGER

@<TRIPOS>ATOM
      1 C         140.5347  140.8828  165.7369 C.3     1  UNL1        0.1686
      2 C         141.5668  139.9288  165.2130 C.3     1  UNL1        0.0595
      3 C         141.1804  138.5210  164.8680 C.3     1  UNL1        0.0611
      4 C         140.3758  137.2714  164.6654 C.3     1  UNL1        0.0175
      5 C         138.9610  137.5603  165.0713 C.3     1  UNL1        0.0175
      6 C         138.8912  138.9884  165.5248 C.3     1  UNL1        0.0611
      7 C         139.1162  140.4290  165.9159 C.3     1  UNL1        0.0595
      8 N         140.2629  139.5822  165.3991 N.3     1  UNL1       -0.2747
      9 O         140.9210  142.2906  166.0818 O.3     1  UNL1       -0.4791
     10 C         140.2051  144.8293  163.1167 C.ar    1  UNL1        0.0561
     11 C         141.5941  145.3050  162.8093 C.ar    1  UNL1        0.0047
     12 C         142.7586  144.7760  163.5928 C.ar    1  UNL1        0.0033
     13 C         142.5343  143.7712  164.6836 C.ar    1  UNL1        0.0369
     14 C         141.1454  143.2954  164.9910 C.ar    1  UNL1        0.1385
     15 C         139.9808  143.8244  164.2075 C.ar    1  UNL1        0.0414
     16 N         137.6836  144.7405  162.4971 N.am    1  UNL1       -0.3253
     17 C         139.0406  145.3583  162.3332 C.2     1  UNL1        0.2428
     18 O         139.2330  146.5053  161.3857 O.2     1  UNL1       -0.2704
     19 H         136.9192  145.0877  161.9828 H       1  UNL1        0.1453
     20 H         137.5573  143.9877  163.1189 H       1  UNL1        0.1453
     21 C         140.6493  140.9899  165.7441 C.3     1  UNL1        0.0767
     22 C         140.3991  141.5194  167.1250 C.3     1  UNL1        0.0437
     23 C         141.3261  141.1560  168.2468 C.ar    1  UNL1       -0.0208
     24 C         141.1503  139.8558  168.9738 C.ar    1  UNL1       -0.0042
     25 C         142.0773  139.4923  170.0957 C.ar    1  UNL1       -0.0003
     26 C         143.1801  140.4292  170.4906 C.ar    1  UNL1       -0.0000
     27 C         143.3560  141.7294  169.7637 C.ar    1  UNL1       -0.0003
     28 C         142.4290  142.0929  168.6418 C.ar    1  UNL1       -0.0042
@<TRIPOS>BOND
     1    16    17   am
     2    17    18    2
     3    17    10    1
     4    10    11   ar
     5    11    12   ar
     6    12    13   ar
     7    13    14   ar
     8    14     9    1
     9     1     9    1
    10     1     2    1
    11     3     2    1
    12     3     4    1
    13     4     5    1
    14     6     5    1
    15     6     7    1
    16     6     8    1
    17     8    21    1
    18    21    22    1
    19    22    23    1
    20    23    24   ar
    21    24    25   ar
    22    25    26   ar
    23    26    27   ar
    24    27    28   ar
    25    14    15   ar
    26    15    10   ar
    27     7     1    1
    28    28    23   ar
    29     8     3    1
    30    16    19    1
    31    16    20    1
@<TRIPOS>MOLECULE
*****
 28 31 0 0 0
SMALL
GASTEIGER

@<TRIPOS>ATOM
      1 C         142.6109  142.0312  165.4497 C.3     1  UNL1        0.1686
      2 C         141.4853  142.5833  164.6263 C.3     1  UNL1        0.0595
      3 C         141.6759  143.8532  163.8510 C.3     1  UNL1        0.0611
      4 C         142.2927  145.0904  163.2691 C.3     1  UNL1        0.0175
      5 C         143.7026  145.1860  163.7722 C.3     1  UNL1        0.0175
      6 C         143.9570  144.0079  164.6651 C.3     1  UNL1        0.0611
      7 C         143.9272  142.7490  165.4978 C.3     1  UNL1        0.0595
      8 N         142.7044  143.1841  164.7138 N.3     1  UNL1       -0.2747
      9 O         142.4204  140.7613  166.2251 O.3     1  UNL1       -0.4791
     10 C         140.9529  141.4109  169.8547 C.ar    1  UNL1        0.0561
     11 C         139.6448  140.6823  169.7662 C.ar    1  UNL1        0.0047
     12 C         139.2618  139.9800  168.4972 C.ar    1  UNL1        0.0033
     13 C         140.1870  140.0064  167.3169 C.ar    1  UNL1        0.0369
     14 C         141.4952  140.7350  167.4055 C.ar    1  UNL1        0.1385
     15 C         141.8781  141.4372  168.6743 C.ar    1  UNL1        0.0414
     16 N         142.6767  142.7756  171.2390 N.am    1  UNL1       -0.3253
     17 C         141.3358  142.1131  171.1237 C.2     1  UNL1        0.2428
     18 O         140.3779  142.1529  172.2773 O.2     1  UNL1       -0.2704
     19 H         142.9280  143.2365  172.0719 H       1  UNL1        0.1453
     20 H         143.3054  142.7495  170.4819 H       1  UNL1        0.1453
     21 C         142.5138  141.9143  165.4891 C.3     1  UNL1        0.0767
     22 C         143.4584  140.7659  165.2915 C.3     1  UNL1        0.0437
     23 C         143.3218  139.8811  164.0881 C.ar    1  UNL1       -0.0208
     24 C         144.1852  140.1142  162.8839 C.ar    1  UNL1       -0.0042
     25 C         144.0487  139.2294  161.6803 C.ar    1  UNL1       -0.0003
     26 C         143.0488  138.1114  161.6811 C.ar    1  UNL1       -0.0000
     27 C         142.1853  137.8781  162.8853 C.ar    1  UNL1       -0.0003
     28 C         142.3218  138.7629  164.0888 C.ar    1  UNL1       -0.0042
@<TRIPOS>BOND
     1    16    17   am
     2    17    18    2
     3    17    10    1
     4    10    11   ar
     5    11    12   ar
     6    12    13   ar
     7    13    14   ar
     8    14     9    1
     9     1     9    1
    10     1     2    1
    11     3     2    1
    12     3     4    1
    13     4     5    1
    14     6     5    1
    15     6     7    1
    16     6     8    1
    17     8    21    1
    18    21    22    1
    19    22    23    1
    20    23    24   ar
    21    24    25   ar
    22    25    26   ar
    23    26    27   ar
    24    27    28   ar
    25    14    15   ar
    26    15    10   ar
    27     7     1    1
    28    28    23   ar
    29     8     3    1
    30    16    19    1
    31    16    20    1
@<TRIPOS>MOLECULE
*****
 28 31 0 0 0
SMALL
GASTEIGER

@<TRIPOS>ATOM
      1 C         140.2080  140.0517  165.7647 C.3     1  UNL1        0.1686
      2 C         141.5042  140.3122  165.0563 C.3     1  UNL1        0.0595
      3 C         142.0229  139.3240  164.0541 C.3     1  UNL1        0.0611
      4 C         142.1462  138.1149  163.1749 C.3     1  UNL1        0.0175
      5 C         140.9489  137.2437  163.4143 C.3     1  UNL1        0.0175
      6 C         140.0856  137.9142  164.4415 C.3     1  UNL1        0.0611
      7 C         139.4304  138.8031  165.4710 C.3     1  UNL1        0.0595
      8 N         140.7494  139.2000  164.8369 N.3     1  UNL1       -0.2747
      9 O         139.6893  141.0399  166.7670 O.3     1  UNL1       -0.4791
     10 C         142.0046  141.9977  169.8446 C.ar    1  UNL1        0.0561
     11 C         141.4098  141.1424  170.9238 C.ar    1  UNL1        0.0047
     12 C         140.2415  140.2530  170.6174 C.ar    1  UNL1        0.0033
     13 C         139.6680  140.2188  169.2318 C.ar    1  UNL1        0.0369
     14 C         140.2628  141.0741  168.1526 C.ar    1  UNL1        0.1385
     15 C         141.4311  141.9635  168.4590 C.ar    1  UNL1        0.0414
     16 N         143.0109  144.0383  171.0990 N.am    1  UNL1       -0.3253
     17 C         143.1729  142.8871  170.1511 C.2     1  UNL1        0.2428
     18 O         144.5034  142.6253  169.5096 O.2     1  UNL1       -0.2704
     19 H         143.7777  144.6220  171.3001 H       1  UNL1        0.1453
     20 H         142.1377  144.2101  171.5200 H       1  UNL1        0.1453
     21 C         140.2307  140.1882  165.8391 C.3     1  UNL1        0.0767
     22 C         138.8573  140.7693  165.6779 C.3     1  UNL1        0.0437
     23 C         138.6455  141.9577  164.7876 C.ar    1  UNL1       -0.0208
     24 C         139.0408  143.3264  165.2570 C.ar    1  UNL1       -0.0042
     25 C         138.8291  144.5150  164.3668 C.ar    1  UNL1       -0.0003
     26 C         138.2221  144.3348  163.0070 C.ar    1  UNL1       -0.0000
     27 C         137.8269  142.9661  162.5374 C.ar    1  UNL1       -0.0003
     28 C         138.0385  141.7775  163.4277 C.ar    1  UNL1       -0.0042
@<TRIPOS>BOND
     1    16    17   am
     2    17    18    2
     3    17    10    1
     4    10    11   ar
     5    11    12   ar
     6    12    13   ar
     7    13    14   ar
     8    14     9    1
     9     1     9    1
    10     1     2    1
    11     3     2    1
    12     3     4    1
    13     4     5    1
    14     6     5    1
    15     6     7    1
    16     6     8    1
    17     8    21    1
    18    21    22    1
    19    22    23    1
    20    23    24   ar
    21    24    25   ar
    22    25    26   ar
    23    26    27   ar
    24    27    28   ar
    25    14    15   ar
    26    15    10   ar
    27     7     1    1
    28    28    23   ar
    29     8     3    1
    30    16    19    1
    31    16    20    1
@<TRIPOS>MOLECULE
*****
 28 31 0 0 0
SMALL
GASTEIGER

@<TRIPOS>ATOM
      1 C         140.8701  140.3295  165.1638 C.3     1  UNL1        0.1686
      2 C         141.8531  140.4331  164.0355 C.3     1  UNL1        0.0595
      3 C         142.1194  139.2436  163.1613 C.3     1  UNL1        0.0611
      4 C         142.0695  137.8633  162.5764 C.3     1  UNL1        0.0175
      5 C         141.0882  137.0570  163.3745 C.3     1  UNL1        0.0175
      6 C         140.5317  137.9390  164.4526 C.3     1  UNL1        0.0611
      7 C         140.1535  139.0364  165.4178 C.3     1  UNL1        0.0595
      8 N         141.1690  139.2904  164.3208 N.3     1  UNL1       -0.2747
      9 O         140.6038  141.5189  166.0381 O.3     1  UNL1       -0.4791
     10 C         141.3264  141.4311  169.9393 C.ar    1  UNL1        0.0561
     11 C         142.7376  141.9383  169.9777 C.ar    1  UNL1        0.0047
     12 C         143.4374  142.3057  168.7029 C.ar    1  UNL1        0.0033
     13 C         142.7261  142.1659  167.3897 C.ar    1  UNL1        0.0369
     14 C         141.3150  141.6587  167.3513 C.ar    1  UNL1        0.1385
     15 C         140.6152  141.2913  168.6261 C.ar    1  UNL1        0.0414
     16 N         140.1063  139.6705  171.4095 N.am    1  UNL1       -0.3253
     17 C         140.6266  141.0637  171.2142 C.2     1  UNL1        0.2428
     18 O         140.4471  142.0896  172.2938 O.2     1  UNL1       -0.2704
     19 H         139.6470  139.4293  172.2462 H       1  UNL1        0.1453
     20 H         140.2241  138.9972  170.7010 H       1  UNL1        0.1453
     21 C         140.9027  140.4799  165.1951 C.3     1  UNL1        0.0767
     22 C         139.4957  140.9545  165.4077 C.3     1  UNL1        0.0437
     23 C         138.9552  142.0891  164.5890 C.ar    1  UNL1       -0.0208
     24 C         138.3353  141.8192  163.2500 C.ar    1  UNL1       -0.0042
     25 C         137.7948  142.9538  162.4312 C.ar    1  UNL1       -0.0003
     26 C         137.8741  144.3584  162.9514 C.ar    1  UNL1       -0.0000
     27 C         138.4939  144.6284  164.2904 C.ar    1  UNL1       -0.0003
     28 C         139.0344  143.4938  165.1092 C.ar    1  UNL1       -0.0042
@<TRIPOS>BOND
     1    16    17   am
     2    17    18    2
     3    17    10    1
     4    10    11   ar
     5    11    12   ar
     6    12    13   ar
     7    13    14   ar
     8    14     9    1
     9     1     9    1
    10     1     2    1
    11     3     2    1
    12     3     4    1
    13     4     5    1
    14     6     5    1
    15     6     7    1
    16     6     8    1
    17     8    21    1
    18    21    22    1
    19    22    23    1
    20    23    24   ar
    21    24    25   ar
    22    25    26   ar
    23    26    27   ar
    24    27    28   ar
    25    14    15   ar
    26    15    10   ar
    27     7     1    1
    28    28    23   ar
    29     8     3    1
    30    16    19    1
    31    16    20    1
@<TRIPOS>MOLECULE
*****
 28 31 0 0 0
SMALL
GASTEIGER

@<TRIPOS>ATOM
      1 C         141.1521  140.7083  165.4614 C.3     1  UNL1        0.1686
      2 C         139.7486  140.2606  165.1792 C.3     1  UNL1        0.0595
      3 C         139.4831  138.8455  164.7584 C.3     1  UNL1        0.0611
      4 C         139.6839  137.4070  164.3838 C.3     1  UNL1        0.0175
      5 C         141.1513  137.1070  164.4667 C.3     1  UNL1        0.0175
      6 C         141.8573  138.3601  164.8925 C.3     1  UNL1        0.0611
      7 C         142.2901  139.7409  165.3227 C.3     1  UNL1        0.0595
      8 N         140.8263  139.4346  165.0728 N.3     1  UNL1       -0.2747
      9 O         141.4177  142.1234  165.8822 O.3     1  UNL1       -0.4791
     10 C         140.3932  144.7933  163.1306 C.ar    1  UNL1        0.0561
     11 C         141.7333  145.3708  162.7831 C.ar    1  UNL1        0.0047
     12 C         142.9681  144.8658  163.4687 C.ar    1  UNL1        0.0033
     13 C         142.8630  143.7834  164.5017 C.ar    1  UNL1        0.0369
     14 C         141.5229  143.2059  164.8492 C.ar    1  UNL1        0.1385
     15 C         140.2880  143.7108  164.1636 C.ar    1  UNL1        0.0414
     16 N         139.2407  146.4827  161.5281 N.am    1  UNL1       -0.3253
     17 C         139.1584  145.2983  162.4450 C.2     1  UNL1        0.2428
     18 O         137.8411  144.6189  162.6762 O.2     1  UNL1       -0.2704
     19 H         138.4302  146.8141  161.0782 H       1  UNL1        0.1453
     20 H         140.1052  146.9286  161.3764 H       1  UNL1        0.1453
     21 C         141.0918  140.8496  165.4936 C.3     1  UNL1        0.0767
     22 C         141.8076  141.1272  166.7823 C.3     1  UNL1        0.0437
     23 C         141.0247  141.4459  168.0214 C.ar    1  UNL1       -0.0208
     24 C         141.0245  142.8419  168.5702 C.ar    1  UNL1       -0.0042
     25 C         140.2416  143.1607  169.8093 C.ar    1  UNL1       -0.0003
     26 C         139.4589  142.0834  170.4997 C.ar    1  UNL1       -0.0000
     27 C         139.4590  140.6873  169.9510 C.ar    1  UNL1       -0.0003
     28 C         140.2419  140.3685  168.7119 C.ar    1  UNL1       -0.0042
@<TRIPOS>BOND
     1    16    17   am
     2    17    18    2
     3    17    10    1
     4    10    11   ar
     5    11    12   ar
     6    12    13   ar
     7    13    14   ar
     8    14     9    1
     9     1     9    1
    10     1     2    1
    11     3     2    1
    12     3     4    1
    13     4     5    1
    14     6     5    1
    15     6     7    1
    16     6     8    1
    17     8    21    1
    18    21    22    1
    19    22    23    1
    20    23    24   ar
    21    24    25   ar
    22    25    26   ar
    23    26    27   ar
    24    27    28   ar
    25    14    15   ar
    26    15    10   ar
    27     7     1    1
    28    28    23   ar
    29     8     3    1
    30    16    19    1
    31    16    20    1
@<TRIPOS>MOLECULE
*****
 28 31 0 0 0
SMALL
GASTEIGER

@<TRIPOS>ATOM
      1 C         142.2058  141.6396  165.4465 C.3     1  UNL1        0.1686
      2 C         143.2015  142.6850  165.0397 C.3     1  UNL1        0.0595
      3 C         144.5223  142.2765  164.4578 C.3     1  UNL1        0.0611
      4 C         145.6588  141.4422  163.9456 C.3     1  UNL1        0.0175
      5 C         145.2715  139.9993  164.0794 C.3     1  UNL1        0.0175
      6 C         143.8957  139.9418  164.6742 C.3     1  UNL1        0.0611
      7 C         142.5308  140.1857  165.2714 C.3     1  UNL1        0.0595
      8 N         143.4326  141.3492  164.9081 N.3     1  UNL1       -0.2747
      9 O         140.8849  142.0480  166.0285 O.3     1  UNL1       -0.4791
     10 C         138.3839  142.7231  163.0220 C.ar    1  UNL1        0.0561
     11 C         137.8015  144.0441  163.4289 C.ar    1  UNL1        0.0047
     12 C         138.2470  144.6998  164.7023 C.ar    1  UNL1        0.0033
     13 C         139.2747  144.0345  165.5688 C.ar    1  UNL1        0.0369
     14 C         139.8571  142.7134  165.1620 C.ar    1  UNL1        0.1385
     15 C         139.4117  142.0577  163.8886 C.ar    1  UNL1        0.0414
     16 N         137.3834  140.6741  161.7766 N.am    1  UNL1       -0.3253
     17 C         137.9385  142.0674  161.7486 C.2     1  UNL1        0.2428
     18 O         138.0482  142.8050  160.4470 O.2     1  UNL1       -0.2704
     19 H         137.0911  140.2438  160.9408 H       1  UNL1        0.1453
     20 H         137.3115  140.1900  162.6308 H       1  UNL1        0.1453
     21 C         142.1119  141.7577  165.4900 C.3     1  UNL1        0.0767
     22 C         141.6630  141.1892  166.8035 C.3     1  UNL1        0.0437
     23 C         141.9988  141.8985  168.0817 C.ar    1  UNL1       -0.0208
     24 C         140.9562  142.7209  168.7794 C.ar    1  UNL1       -0.0042
     25 C         141.2920  143.4304  170.0577 C.ar    1  UNL1       -0.0003
     26 C         142.6704  143.3174  170.6383 C.ar    1  UNL1       -0.0000
     27 C         143.7131  142.4950  169.9407 C.ar    1  UNL1       -0.0003
     28 C         143.3773  141.7856  168.6625 C.ar    1  UNL1       -0.0042
@<TRIPOS>BOND
     1    16    17   am
     2    17    18    2
     3    17    10    1
     4    10    11   ar
     5    11    12   ar
     6    12    13   ar
     7    13    14   ar
     8    14     9    1
     9     1     9    1
    10     1     2    1
    11     3     2    1
    12     3     4    1
    13     4     5    1
    14     6     5    1
    15     6     7    1
    16     6     8    1
    17     8    21    1
    18    21    22    1
    19    22    23    1
    20    23    24   ar
    21    24    25   ar
    22    25    26   ar
    23    26    27   ar
    24    27    28   ar
    25    14    15   ar
    26    15    10   ar
    27     7     1    1
    28    28    23   ar
    29     8     3    1
    30    16    19    1
    31    16    20    1
