@<TRIPOS>MOLECULE
*****
 29 31 0 0 0
SMALL
GASTEIGER

@<TRIPOS>ATOM
      1 N         139.4619  142.3293  160.7709 N.3     1  UNL1       -0.2723
      2 C         140.4479  141.2027  160.6796 C.3     1  UNL1        0.0725
      3 C         140.3818  140.0671  161.6573 C.3     1  UNL1        0.0250
      4 C         139.3296  140.0582  162.7264 C.3     1  UNL1        0.0647
      5 C         138.3436  141.1848  162.8177 C.3     1  UNL1        0.0250
      6 C         138.4097  142.3204  161.8400 C.3     1  UNL1        0.0725
      7 C         139.2635  138.9225  163.7042 C.2     1  UNL1        0.1727
      8 O         139.2937  137.5060  163.2116 O.2     1  UNL1       -0.2914
      9 C         139.1673  139.2034  165.1745 C.ar    1  UNL1        0.0348
     10 C         140.1773  140.0937  165.8357 C.ar    1  UNL1        0.0042
     11 C         140.0811  140.3746  167.3060 C.ar    1  UNL1        0.0159
     12 C         138.9748  139.7651  168.1152 C.ar    1  UNL1        0.0644
     13 C         137.9648  138.8747  167.4540 C.ar    1  UNL1        0.0159
     14 C         138.0611  138.5939  165.9836 C.ar    1  UNL1        0.0042
     15 N         138.8785  140.0460  169.5854 N.pl3   1  UNL1       -0.2187
     16 H         138.0450  139.8485  170.0708 H       1  UNL1        0.1734
     17 S         140.0522  140.6276  170.3163 S.O2    1  UNL1        0.0558
     18 C         141.2259  141.2092  171.0472 C.3     1  UNL1        0.1996
     19 O         139.3521  141.9523  170.3863 O.2     1  UNL1       -0.1544
     20 O         140.7523  139.3029  170.2463 O.2     1  UNL1       -0.1544
     21 C         139.5280  143.4650  159.7931 C.3     1  UNL1        0.0784
     22 C         140.2410  144.7320  160.1623 C.3     1  UNL1        0.0631
     23 C         144.8182  143.4064  162.2341 C.3     1  UNL1        0.0521
     24 C         143.4847  144.0826  162.3547 C.ar    1  UNL1        0.0590
     25 C         143.1063  144.7723  163.6319 C.ar    1  UNL1        0.0147
     26 C         141.7728  145.4485  163.7525 C.ar    1  UNL1        0.0024
     27 C         140.8178  145.4351  162.5960 C.ar    1  UNL1        0.0148
     28 C         141.1961  144.7454  161.3189 C.ar    1  UNL1        0.0600
     29 N         142.5296  144.0692  161.1982 N.ar    1  UNL1       -0.2539
@<TRIPOS>BOND
     1    23    24    1
     2    24    25   ar
     3    25    26   ar
     4    26    27   ar
     5    27    28   ar
     6    28    22    1
     7    22    21    1
     8    21     1    1
     9     1     2    1
    10     2     3    1
    11     3     4    1
    12     4     7    1
    13     7     8    2
    14     7     9    1
    15     9    10   ar
    16    10    11   ar
    17    11    12   ar
    18    12    15    1
    19    15    17    1
    20    17    18    1
    21    17    19    2
    22    17    20    2
    23    12    13   ar
    24    13    14   ar
    25     4     5    1
    26     5     6    1
    27    28    29   ar
    28    29    24   ar
    29     6     1    1
    30    14     9   ar
    31    15    16    1
@<TRIPOS>MOLECULE
*****
 29 31 0 0 0
SMALL
GASTEIGER

@<TRIPOS>ATOM
      1 N         143.3846  140.5941  161.2735 N.3     1  UNL1       -0.2723
      2 C         141.9106  140.3419  161.3898 C.3     1  UNL1        0.0725
      3 C         141.3679  139.6000  162.5751 C.3     1  UNL1        0.0250
      4 C         142.2992  139.1103  163.6441 C.3     1  UNL1        0.0647
      5 C         143.7733  139.3625  163.5278 C.3     1  UNL1        0.0250
      6 C         144.3160  140.1044  162.3425 C.3     1  UNL1        0.0725
      7 C         141.7565  138.3683  164.8294 C.2     1  UNL1        0.1727
      8 O         141.3933  136.9183  164.7046 O.2     1  UNL1       -0.2914
      9 C         141.5768  139.0763  166.1395 C.ar    1  UNL1        0.0348
     10 C         140.2671  139.7311  166.4648 C.ar    1  UNL1        0.0042
     11 C         140.0874  140.4391  167.7749 C.ar    1  UNL1        0.0159
     12 C         141.2176  140.4924  168.7598 C.ar    1  UNL1        0.0644
     13 C         142.5274  139.8377  168.4345 C.ar    1  UNL1        0.0159
     14 C         142.7070  139.1296  167.1243 C.ar    1  UNL1        0.0042
     15 N         141.0380  141.2005  170.0698 N.pl3   1  UNL1       -0.2187
     16 H         141.1460  140.7071  170.9149 H       1  UNL1        0.1734
     17 S         140.6937  142.6603  170.0924 S.O2    1  UNL1        0.0558
     18 C         140.3495  144.1201  170.1150 C.3     1  UNL1        0.1996
     19 O         139.3504  142.3345  170.6748 O.2     1  UNL1       -0.1544
     20 O         142.0371  142.9861  169.5100 O.2     1  UNL1       -0.1544
     21 C         143.9274  141.3361  160.0882 C.3     1  UNL1        0.0784
     22 C         143.9278  142.8360  160.0781 C.3     1  UNL1        0.0631
     23 C         140.1050  145.3475  162.5438 C.3     1  UNL1        0.0521
     24 C         141.5196  144.8499  162.5062 C.ar    1  UNL1        0.0590
     25 C         142.4374  145.1105  163.6636 C.ar    1  UNL1        0.0147
     26 C         143.8520  144.6130  163.6259 C.ar    1  UNL1        0.0024
     27 C         144.3488  143.8548  162.4308 C.ar    1  UNL1        0.0148
     28 C         143.4310  143.5942  161.2733 C.ar    1  UNL1        0.0600
     29 N         142.0164  144.0918  161.3110 N.ar    1  UNL1       -0.2539
@<TRIPOS>BOND
     1    23    24    1
     2    24    25   ar
     3    25    26   ar
     4    26    27   ar
     5    27    28   ar
     6    28    22    1
     7    22    21    1
     8    21     1    1
     9     1     2    1
    10     2     3    1
    11     3     4    1
    12     4     7    1
    13     7     8    2
    14     7     9    1
    15     9    10   ar
    16    10    11   ar
    17    11    12   ar
    18    12    15    1
    19    15    17    1
    20    17    18    1
    21    17    19    2
    22    17    20    2
    23    12    13   ar
    24    13    14   ar
    25     4     5    1
    26     5     6    1
    27    28    29   ar
    28    29    24   ar
    29     6     1    1
    30    14     9   ar
    31    15    16    1
@<TRIPOS>MOLECULE
*****
 29 31 0 0 0
SMALL
GASTEIGER

@<TRIPOS>ATOM
      1 N         141.3593  142.0081  160.3141 N.3     1  UNL1       -0.2723
      2 C         140.4280  143.1191  160.6991 C.3     1  UNL1        0.0725
      3 C         139.3874  142.8932  161.7556 C.3     1  UNL1        0.0250
      4 C         139.2781  141.5563  162.4270 C.3     1  UNL1        0.0647
      5 C         140.2095  140.4453  162.0420 C.3     1  UNL1        0.0250
      6 C         141.2501  140.6712  160.9856 C.3     1  UNL1        0.0725
      7 C         138.2375  141.3305  163.4835 C.2     1  UNL1        0.1727
      8 O         136.7842  141.4999  163.1531 O.2     1  UNL1       -0.2914
      9 C         138.6502  140.9352  164.8704 C.ar    1  UNL1        0.0348
     10 C         139.5671  141.8206  165.6611 C.ar    1  UNL1        0.0042
     11 C         139.9798  141.4253  167.0479 C.ar    1  UNL1        0.0159
     12 C         139.4755  140.1445  167.6441 C.ar    1  UNL1        0.0644
     13 C         138.5586  139.2591  166.8534 C.ar    1  UNL1        0.0159
     14 C         138.1459  139.6545  165.4665 C.ar    1  UNL1        0.0042
     15 N         139.8882  139.7493  169.0310 N.pl3   1  UNL1       -0.2187
     16 H         139.8948  138.7997  169.2908 H       1  UNL1        0.1734
     17 S         140.2908  140.8008  170.0221 S.O2    1  UNL1        0.0558
     18 C         140.6934  141.8523  171.0132 C.3     1  UNL1        0.1996
     19 O         138.8458  141.0986  170.2930 O.2     1  UNL1       -0.1544
     20 O         141.7357  140.5029  169.7512 O.2     1  UNL1       -0.1544
     21 C         142.4000  142.2339  159.2576 C.3     1  UNL1        0.0784
     22 C         143.7678  142.7142  159.6427 C.3     1  UNL1        0.0631
     23 C         143.7254  145.2619  164.1712 C.3     1  UNL1        0.0521
     24 C         144.1323  144.0716  163.3541 C.ar    1  UNL1        0.0590
     25 C         144.9248  142.9649  163.9842 C.ar    1  UNL1        0.0147
     26 C         145.3317  141.7746  163.1671 C.ar    1  UNL1        0.0024
     27 C         144.9460  141.6910  161.7200 C.ar    1  UNL1        0.0148
     28 C         144.1535  142.7977  161.0899 C.ar    1  UNL1        0.0600
     29 N         143.7466  143.9880  161.9070 N.ar    1  UNL1       -0.2539
@<TRIPOS>BOND
     1    23    24    1
     2    24    25   ar
     3    25    26   ar
     4    26    27   ar
     5    27    28   ar
     6    28    22    1
     7    22    21    1
     8    21     1    1
     9     1     2    1
    10     2     3    1
    11     3     4    1
    12     4     7    1
    13     7     8    2
    14     7     9    1
    15     9    10   ar
    16    10    11   ar
    17    11    12   ar
    18    12    15    1
    19    15    17    1
    20    17    18    1
    21    17    19    2
    22    17    20    2
    23    12    13   ar
    24    13    14   ar
    25     4     5    1
    26     5     6    1
    27    28    29   ar
    28    29    24   ar
    29     6     1    1
    30    14     9   ar
    31    15    16    1
@<TRIPOS>MOLECULE
*****
 29 31 0 0 0
SMALL
GASTEIGER

@<TRIPOS>ATOM
      1 N         139.1077  138.8422  162.4811 N.3     1  UNL1       -0.2723
      2 C         138.4477  140.0343  163.1083 C.3     1  UNL1        0.0725
      3 C         138.1261  140.0291  164.5734 C.3     1  UNL1        0.0250
      4 C         138.4645  138.8318  165.4113 C.3     1  UNL1        0.0647
      5 C         139.1246  137.6398  164.7841 C.3     1  UNL1        0.0250
      6 C         139.4462  137.6450  163.3191 C.3     1  UNL1        0.0725
      7 C         138.1429  138.8267  166.8765 C.2     1  UNL1        0.1727
      8 O         136.9468  138.0739  167.3791 O.2     1  UNL1       -0.2914
      9 C         139.0173  139.5743  167.8389 C.ar    1  UNL1        0.0348
     10 C         140.3500  140.0972  167.3909 C.ar    1  UNL1        0.0042
     11 C         141.2244  140.8448  168.3533 C.ar    1  UNL1        0.0159
     12 C         140.7662  141.0696  169.7639 C.ar    1  UNL1        0.0644
     13 C         139.4336  140.5468  170.2119 C.ar    1  UNL1        0.0159
     14 C         138.5591  139.7991  169.2494 C.ar    1  UNL1        0.0042
     15 N         141.6407  141.8173  170.7263 N.pl3   1  UNL1       -0.2187
     16 H         141.3125  142.0237  171.6313 H       1  UNL1        0.1734
     17 S         143.0151  142.2504  170.3100 S.O2    1  UNL1        0.0558
     18 C         144.3895  142.6836  169.8937 C.3     1  UNL1        0.1996
     19 O         143.4470  140.8155  170.2429 O.2     1  UNL1       -0.1544
     20 O         142.5832  143.6853  170.3771 O.2     1  UNL1       -0.1544
     21 C         139.4294  138.8474  161.0160 C.3     1  UNL1        0.0784
     22 C         140.8241  139.1514  160.5554 C.3     1  UNL1        0.0631
     23 C         144.7248  139.5035  163.9702 C.3     1  UNL1        0.0521
     24 C         143.6814  140.1624  163.1175 C.ar    1  UNL1        0.0590
     25 C         143.5448  141.6561  163.1194 C.ar    1  UNL1        0.0147
     26 C         142.5013  142.3150  162.2667 C.ar    1  UNL1        0.0024
     27 C         141.5945  141.4801  161.4120 C.ar    1  UNL1        0.0148
     28 C         141.7310  139.9863  161.4101 C.ar    1  UNL1        0.0600
     29 N         142.7745  139.3275  162.2628 N.ar    1  UNL1       -0.2539
@<TRIPOS>BOND
     1    23    24    1
     2    24    25   ar
     3    25    26   ar
     4    26    27   ar
     5    27    28   ar
     6    28    22    1
     7    22    21    1
     8    21     1    1
     9     1     2    1
    10     2     3    1
    11     3     4    1
    12     4     7    1
    13     7     8    2
    14     7     9    1
    15     9    10   ar
    16    10    11   ar
    17    11    12   ar
    18    12    15    1
    19    15    17    1
    20    17    18    1
    21    17    19    2
    22    17    20    2
    23    12    13   ar
    24    13    14   ar
    25     4     5    1
    26     5     6    1
    27    28    29   ar
    28    29    24   ar
    29     6     1    1
    30    14     9   ar
    31    15    16    1
@<TRIPOS>MOLECULE
*****
 29 31 0 0 0
SMALL
GASTEIGER

@<TRIPOS>ATOM
      1 N         141.4291  141.1597  160.3782 N.3     1  UNL1       -0.2723
      2 C         140.8078  142.4517  160.8195 C.3     1  UNL1        0.0725
      3 C         139.7653  142.4527  161.8980 C.3     1  UNL1        0.0250
      4 C         139.3441  141.1618  162.5353 C.3     1  UNL1        0.0647
      5 C         139.9654  139.8698  162.0941 C.3     1  UNL1        0.0250
      6 C         141.0079  139.8687  161.0156 C.3     1  UNL1        0.0725
      7 C         138.3016  141.1630  163.6138 C.2     1  UNL1        0.1727
      8 O         136.8822  141.5190  163.2845 O.2     1  UNL1       -0.2914
      9 C         138.6786  140.8081  165.0216 C.ar    1  UNL1        0.0348
     10 C         138.0991  139.5846  165.6675 C.ar    1  UNL1        0.0042
     11 C         138.4760  139.2297  167.0753 C.ar    1  UNL1        0.0159
     12 C         139.4325  140.0984  167.8373 C.ar    1  UNL1        0.0644
     13 C         140.0120  141.3219  167.1914 C.ar    1  UNL1        0.0159
     14 C         139.6350  141.6768  165.7836 C.ar    1  UNL1        0.0042
     15 N         139.8094  139.7436  169.2451 N.pl3   1  UNL1       -0.2187
     16 H         139.7829  138.8046  169.5400 H       1  UNL1        0.1734
     17 S         140.2268  140.8192  170.2036 S.O2    1  UNL1        0.0558
     18 C         140.6443  141.8949  171.1621 C.3     1  UNL1        0.1996
     19 O         141.6615  140.4169  170.0303 O.2     1  UNL1       -0.1544
     20 O         138.7922  141.2215  170.3769 O.2     1  UNL1       -0.1544
     21 C         142.4716  141.1585  159.2997 C.3     1  UNL1        0.0784
     22 C         143.9077  141.4204  159.6444 C.3     1  UNL1        0.0631
     23 C         145.1920  139.4545  164.2797 C.3     1  UNL1        0.0521
     24 C         144.9528  140.6402  163.3927 C.ar    1  UNL1        0.0590
     25 C         145.1165  142.0287  163.9362 C.ar    1  UNL1        0.0147
     26 C         144.8773  143.2144  163.0491 C.ar    1  UNL1        0.0024
     27 C         144.4743  143.0116  161.6186 C.ar    1  UNL1        0.0148
     28 C         144.3106  141.6232  161.0751 C.ar    1  UNL1        0.0600
     29 N         144.5499  140.4375  161.9621 N.ar    1  UNL1       -0.2539
@<TRIPOS>BOND
     1    23    24    1
     2    24    25   ar
     3    25    26   ar
     4    26    27   ar
     5    27    28   ar
     6    28    22    1
     7    22    21    1
     8    21     1    1
     9     1     2    1
    10     2     3    1
    11     3     4    1
    12     4     7    1
    13     7     8    2
    14     7     9    1
    15     9    10   ar
    16    10    11   ar
    17    11    12   ar
    18    12    15    1
    19    15    17    1
    20    17    18    1
    21    17    19    2
    22    17    20    2
    23    12    13   ar
    24    13    14   ar
    25     4     5    1
    26     5     6    1
    27    28    29   ar
    28    29    24   ar
    29     6     1    1
    30    14     9   ar
    31    15    16    1
@<TRIPOS>MOLECULE
*****
 29 31 0 0 0
SMALL
GASTEIGER

@<TRIPOS>ATOM
      1 N         138.5428  139.8010  165.7476 N.3     1  UNL1       -0.2723
      2 C         139.5664  140.6038  166.4945 C.3     1  UNL1        0.0725
      3 C         139.8050  142.0393  166.1308 C.3     1  UNL1        0.0250
      4 C         139.0201  142.6720  165.0202 C.3     1  UNL1        0.0647
      5 C         137.9966  141.8693  164.2732 C.3     1  UNL1        0.0250
      6 C         137.7580  140.4338  164.6369 C.3     1  UNL1        0.0725
      7 C         139.2588  144.1076  164.6565 C.2     1  UNL1        0.1727
      8 O         138.8559  145.1983  165.6041 O.2     1  UNL1       -0.2914
      9 C         139.9003  144.4524  163.3452 C.ar    1  UNL1        0.0348
     10 C         139.3434  145.5651  162.5074 C.ar    1  UNL1        0.0042
     11 C         139.9850  145.9099  161.1961 C.ar    1  UNL1        0.0159
     12 C         141.1834  145.1420  160.7225 C.ar    1  UNL1        0.0644
     13 C         141.7402  144.0294  161.5603 C.ar    1  UNL1        0.0159
     14 C         141.0986  143.6846  162.8717 C.ar    1  UNL1        0.0042
     15 N         141.8249  145.4868  159.4112 N.pl3   1  UNL1       -0.2187
     16 H         142.3209  146.3316  159.3130 H       1  UNL1        0.1734
     17 S         141.7107  144.5446  158.2497 S.O2    1  UNL1        0.0558
     18 C         141.5966  143.6024  157.0882 C.3     1  UNL1        0.1996
     19 O         140.2611  144.9012  158.1030 O.2     1  UNL1       -0.1544
     20 O         143.1603  144.1881  158.3964 O.2     1  UNL1       -0.1544
     21 C         138.3042  138.3654  166.1113 C.3     1  UNL1        0.0784
     22 C         138.9411  137.2719  165.3061 C.3     1  UNL1        0.0631
     23 C         139.4825  138.3207  160.2457 C.3     1  UNL1        0.0521
     24 C         140.0867  138.1382  161.6065 C.ar    1  UNL1        0.0590
     25 C         141.5659  138.2976  161.7978 C.ar    1  UNL1        0.0147
     26 C         142.1701  138.1152  163.1585 C.ar    1  UNL1        0.0024
     27 C         141.2952  137.7732  164.3279 C.ar    1  UNL1        0.0148
     28 C         139.8161  137.6138  164.1366 C.ar    1  UNL1        0.0600
     29 N         139.2118  137.7963  162.7759 N.ar    1  UNL1       -0.2539
@<TRIPOS>BOND
     1    23    24    1
     2    24    25   ar
     3    25    26   ar
     4    26    27   ar
     5    27    28   ar
     6    28    22    1
     7    22    21    1
     8    21     1    1
     9     1     2    1
    10     2     3    1
    11     3     4    1
    12     4     7    1
    13     7     8    2
    14     7     9    1
    15     9    10   ar
    16    10    11   ar
    17    11    12   ar
    18    12    15    1
    19    15    17    1
    20    17    18    1
    21    17    19    2
    22    17    20    2
    23    12    13   ar
    24    13    14   ar
    25     4     5    1
    26     5     6    1
    27    28    29   ar
    28    29    24   ar
    29     6     1    1
    30    14     9   ar
    31    15    16    1
@<TRIPOS>MOLECULE
*****
 29 31 0 0 0
SMALL
GASTEIGER

@<TRIPOS>ATOM
      1 N         143.5231  140.1852  161.1610 N.3     1  UNL1       -0.2723
      2 C         142.7068  141.4202  160.9192 C.3     1  UNL1        0.0725
      3 C         142.5550  142.4434  162.0054 C.3     1  UNL1        0.0250
      4 C         143.2195  142.2317  163.3334 C.3     1  UNL1        0.0647
      5 C         144.0358  140.9968  163.5752 C.3     1  UNL1        0.0250
      6 C         144.1876  139.9735  162.4890 C.3     1  UNL1        0.0725
      7 C         143.0677  143.2551  164.4196 C.2     1  UNL1        0.1727
      8 O         143.4114  144.6903  164.1512 O.2     1  UNL1       -0.2914
      9 C         142.5723  142.8432  165.7742 C.ar    1  UNL1        0.0348
     10 C         141.1013  142.6776  166.0163 C.ar    1  UNL1        0.0042
     11 C         140.6058  142.2657  167.3709 C.ar    1  UNL1        0.0159
     12 C         141.5814  142.0194  168.4833 C.ar    1  UNL1        0.0644
     13 C         143.0525  142.1850  168.2412 C.ar    1  UNL1        0.0159
     14 C         143.5479  142.5969  166.8866 C.ar    1  UNL1        0.0042
     15 N         141.0860  141.6075  169.8379 N.pl3   1  UNL1       -0.2187
     16 H         141.6257  141.7993  170.6387 H       1  UNL1        0.1734
     17 S         139.7684  140.9034  169.9724 S.O2    1  UNL1        0.0558
     18 C         138.4508  140.1993  170.1069 C.3     1  UNL1        0.1996
     19 O         139.1694  142.1395  170.5751 O.2     1  UNL1       -0.1544
     20 O         140.3674  139.6673  169.3697 O.2     1  UNL1       -0.1544
     21 C         143.6749  139.1619  160.0748 C.3     1  UNL1        0.0784
     22 C         142.7446  137.9867  160.0162 C.3     1  UNL1        0.0631
     23 C         140.4727  136.9970  164.5834 C.3     1  UNL1        0.0521
     24 C         140.3807  137.4637  163.1609 C.ar    1  UNL1        0.0590
     25 C         139.0607  137.9022  162.5993 C.ar    1  UNL1        0.0147
     26 C         138.9687  138.3689  161.1767 C.ar    1  UNL1        0.0024
     27 C         140.1966  138.3970  160.3157 C.ar    1  UNL1        0.0148
     28 C         141.5166  137.9585  160.8773 C.ar    1  UNL1        0.0600
     29 N         141.6086  137.4919  162.2998 N.ar    1  UNL1       -0.2539
@<TRIPOS>BOND
     1    23    24    1
     2    24    25   ar
     3    25    26   ar
     4    26    27   ar
     5    27    28   ar
     6    28    22    1
     7    22    21    1
     8    21     1    1
     9     1     2    1
    10     2     3    1
    11     3     4    1
    12     4     7    1
    13     7     8    2
    14     7     9    1
    15     9    10   ar
    16    10    11   ar
    17    11    12   ar
    18    12    15    1
    19    15    17    1
    20    17    18    1
    21    17    19    2
    22    17    20    2
    23    12    13   ar
    24    13    14   ar
    25     4     5    1
    26     5     6    1
    27    28    29   ar
    28    29    24   ar
    29     6     1    1
    30    14     9   ar
    31    15    16    1
@<TRIPOS>MOLECULE
*****
 29 31 0 0 0
SMALL
GASTEIGER

@<TRIPOS>ATOM
      1 N         141.6445  142.5729  160.2650 N.3     1  UNL1       -0.2723
      2 C         141.9934  141.1556  160.6107 C.3     1  UNL1        0.0725
      3 C         142.8868  140.8671  161.7805 C.3     1  UNL1        0.0250
      4 C         143.4313  141.9959  162.6047 C.3     1  UNL1        0.0647
      5 C         143.0825  143.4132  162.2590 C.3     1  UNL1        0.0250
      6 C         142.1891  143.7017  161.0892 C.3     1  UNL1        0.0725
      7 C         144.3248  141.7073  163.7745 C.2     1  UNL1        0.1727
      8 O         145.8145  141.7113  163.5994 O.2     1  UNL1       -0.2914
      9 C         143.7285  141.4147  165.1194 C.ar    1  UNL1        0.0348
     10 C         143.3050  140.0177  165.4642 C.ar    1  UNL1        0.0042
     11 C         142.7087  139.7251  166.8091 C.ar    1  UNL1        0.0159
     12 C         142.5359  140.8296  167.8093 C.ar    1  UNL1        0.0644
     13 C         142.9594  142.2266  167.4645 C.ar    1  UNL1        0.0159
     14 C         143.5557  142.5192  166.1195 C.ar    1  UNL1        0.0042
     15 N         141.9396  140.5370  169.1542 N.pl3   1  UNL1       -0.2187
     16 H         142.2266  139.7409  169.6572 H       1  UNL1        0.1734
     17 S         140.9060  141.4573  169.7327 S.O2    1  UNL1        0.0558
     18 C         139.8724  142.3777  170.3111 C.3     1  UNL1        0.1996
     19 O         139.9273  141.0168  168.6848 O.2     1  UNL1       -0.1544
     20 O         141.8848  141.8979  170.7805 O.2     1  UNL1       -0.1544
     21 C         140.7511  142.8615  159.0951 C.3     1  UNL1        0.0784
     22 C         139.2676  142.9643  159.2918 C.3     1  UNL1        0.0631
     23 C         137.7179  144.1778  164.1007 C.3     1  UNL1        0.0521
     24 C         137.8798  143.1670  163.0043 C.ar    1  UNL1        0.0590
     25 C         137.4287  141.7522  163.2160 C.ar    1  UNL1        0.0147
     26 C         137.5906  140.7414  162.1196 C.ar    1  UNL1        0.0024
     27 C         138.2035  141.1454  160.8115 C.ar    1  UNL1        0.0148
     28 C         138.6546  142.5602  160.5999 C.ar    1  UNL1        0.0600
     29 N         138.4927  143.5710  161.6963 N.ar    1  UNL1       -0.2539
@<TRIPOS>BOND
     1    23    24    1
     2    24    25   ar
     3    25    26   ar
     4    26    27   ar
     5    27    28   ar
     6    28    22    1
     7    22    21    1
     8    21     1    1
     9     1     2    1
    10     2     3    1
    11     3     4    1
    12     4     7    1
    13     7     8    2
    14     7     9    1
    15     9    10   ar
    16    10    11   ar
    17    11    12   ar
    18    12    15    1
    19    15    17    1
    20    17    18    1
    21    17    19    2
    22    17    20    2
    23    12    13   ar
    24    13    14   ar
    25     4     5    1
    26     5     6    1
    27    28    29   ar
    28    29    24   ar
    29     6     1    1
    30    14     9   ar
    31    15    16    1
@<TRIPOS>MOLECULE
*****
 29 31 0 0 0
SMALL
GASTEIGER

@<TRIPOS>ATOM
      1 N         139.0722  140.0569  162.1116 N.3     1  UNL1       -0.2723
      2 C         138.1602  140.9431  162.9071 C.3     1  UNL1        0.0725
      3 C         137.9089  140.6524  164.3570 C.3     1  UNL1        0.0250
      4 C         138.5697  139.4754  165.0114 C.3     1  UNL1        0.0647
      5 C         139.4817  138.5893  164.2159 C.3     1  UNL1        0.0250
      6 C         139.7330  138.8800  162.7659 C.3     1  UNL1        0.0725
      7 C         138.3184  139.1847  166.4614 C.2     1  UNL1        0.1727
      8 O         137.2217  138.2414  166.8581 O.2     1  UNL1       -0.2914
      9 C         139.1639  139.8373  167.5146 C.ar    1  UNL1        0.0348
     10 C         140.4456  140.5166  167.1330 C.ar    1  UNL1        0.0042
     11 C         141.2910  141.1692  168.1862 C.ar    1  UNL1        0.0159
     12 C         140.8547  141.1425  169.6212 C.ar    1  UNL1        0.0644
     13 C         139.5730  140.4632  170.0028 C.ar    1  UNL1        0.0159
     14 C         138.7275  139.8106  168.9495 C.ar    1  UNL1        0.0042
     15 N         141.7001  141.7951  170.6744 N.pl3   1  UNL1       -0.2187
     16 H         141.3398  141.9311  171.5804 H       1  UNL1        0.1734
     17 S         143.0946  142.2404  170.3472 S.O2    1  UNL1        0.0558
     18 C         144.4891  142.6858  170.0201 C.3     1  UNL1        0.1996
     19 O         143.5270  140.8081  170.2403 O.2     1  UNL1       -0.1544
     20 O         142.6623  143.6728  170.4542 O.2     1  UNL1       -0.1544
     21 C         139.3235  140.3476  160.6615 C.3     1  UNL1        0.0784
     22 C         140.4157  141.2962  160.2651 C.3     1  UNL1        0.0631
     23 C         139.7829  146.2106  161.8300 C.3     1  UNL1        0.0521
     24 C         140.4755  144.8860  161.9563 C.ar    1  UNL1        0.0590
     25 C         141.5442  144.6941  162.9911 C.ar    1  UNL1        0.0147
     26 C         142.2367  143.3695  163.1174 C.ar    1  UNL1        0.0024
     27 C         141.8606  142.2369  162.2087 C.ar    1  UNL1        0.0148
     28 C         140.7919  142.4288  161.1738 C.ar    1  UNL1        0.0600
     29 N         140.0993  143.7534  161.0476 N.ar    1  UNL1       -0.2539
@<TRIPOS>BOND
     1    23    24    1
     2    24    25   ar
     3    25    26   ar
     4    26    27   ar
     5    27    28   ar
     6    28    22    1
     7    22    21    1
     8    21     1    1
     9     1     2    1
    10     2     3    1
    11     3     4    1
    12     4     7    1
    13     7     8    2
    14     7     9    1
    15     9    10   ar
    16    10    11   ar
    17    11    12   ar
    18    12    15    1
    19    15    17    1
    20    17    18    1
    21    17    19    2
    22    17    20    2
    23    12    13   ar
    24    13    14   ar
    25     4     5    1
    26     5     6    1
    27    28    29   ar
    28    29    24   ar
    29     6     1    1
    30    14     9   ar
    31    15    16    1
