@<TRIPOS>MOLECULE
*****
 33 37 0 0 0
SMALL
GASTEIGER

@<TRIPOS>ATOM
      1 N         142.3822  143.8845  164.1479 N.3     1  UNL1       -0.2724
      2 C         141.4851  145.0752  163.9819 C.3     1  UNL1        0.0724
      3 C         140.0940  144.6644  164.3643 C.3     1  UNL1        0.0215
      4 C         138.8355  143.9746  164.8005 C.3     1  UNL1        0.0073
      5 C         140.1314  143.2199  164.7667 C.3     1  UNL1        0.0371
      6 C         141.5455  142.7379  164.6329 C.3     1  UNL1        0.0762
      7 C         139.5656  141.9154  165.2446 C.ar    1  UNL1        0.0060
      8 C         138.6482  141.1262  164.3583 C.ar    1  UNL1       -0.0021
      9 C         138.0824  139.8217  164.8362 C.ar    1  UNL1        0.0037
     10 C         138.4341  139.3065  166.2004 C.ar    1  UNL1        0.0736
     11 C         139.3516  140.0958  167.0866 C.ar    1  UNL1        0.0332
     12 C         139.9173  141.4002  166.6087 C.ar    1  UNL1        0.1361
     13 F         140.8348  142.1895  167.4950 F       1  UNL1       -0.2045
     14 C         137.8684  138.0021  166.6783 C.3     1  UNL1        0.4186
     15 F         137.3027  136.6977  167.1562 F       1  UNL1       -0.1659
     16 F         137.2806  138.6944  167.8721 F       1  UNL1       -0.1659
     17 F         138.4563  137.3098  165.4845 F       1  UNL1       -0.1659
     18 C         143.8569  143.8471  163.8766 C.3     1  UNL1        0.0730
     19 C         144.7432  142.9359  164.6730 C.3     1  UNL1        0.0294
     20 C         145.5975  141.9207  163.9733 C.3     1  UNL1        0.0666
     21 S         145.2220  140.4690  164.0133 S.3     1  UNL1       -0.0756
     22 C         141.7635  139.6459  162.4556 C.ar    1  UNL1        0.2029
     23 N         141.5757  139.1479  163.8580 N.ar    1  UNL1       -0.1250
     24 N         142.8483  139.3956  164.6122 N.ar    1  UNL1       -0.1220
     25 C         143.8227  140.0467  163.6759 C.ar    1  UNL1        0.1933
     26 N         143.1522  140.2014  162.3431 N.ar    1  UNL1       -0.2860
     27 C         143.7633  140.8055  161.1136 C.3     1  UNL1        0.1341
     28 C         140.1789  142.2049  161.1945 C.3     1  UNL1        0.0556
     29 C         140.0135  140.7732  160.7787 C.ar    1  UNL1        0.1001
     30 N         139.0907  140.2664  159.7103 N.ar    1  UNL1       -0.2085
     31 C         139.2488  138.7770  159.6296 C.ar    1  UNL1        0.2849
     32 O         140.2692  138.3632  160.6481 O.2     1  UNL1       -0.4283
     33 C         140.7418  139.5970  161.3583 C.ar    1  UNL1        0.1964
@<TRIPOS>BOND
     1    28    29    1
     2    29    30   ar
     3    30    31   ar
     4    31    32   ar
     5    32    33   ar
     6    33    22    1
     7    22    23   ar
     8    23    24   ar
     9    24    25   ar
    10    25    21    1
    11    21    20    1
    12    20    19    1
    13    19    18    1
    14    18     1    1
    15     1     2    1
    16     2     3    1
    17     3     4    1
    18     4     5    1
    19     5     7    1
    20     7     8   ar
    21     8     9   ar
    22     9    10   ar
    23    10    14    1
    24    14    15    1
    25    14    16    1
    26    14    17    1
    27    10    11   ar
    28    11    12   ar
    29    12    13    1
    30     5     6    1
    31    25    26   ar
    32    26    27    1
    33    33    29   ar
    34    26    22   ar
    35     6     1    1
    36     5     3    1
    37    12     7   ar
@<TRIPOS>MOLECULE
*****
 33 37 0 0 0
SMALL
GASTEIGER

@<TRIPOS>ATOM
      1 N         141.4810  144.2972  162.7627 N.3     1  UNL1       -0.2724
      2 C         140.5355  145.4510  162.9198 C.3     1  UNL1        0.0724
      3 C         139.3255  144.9615  163.6589 C.3     1  UNL1        0.0215
      4 C         138.2669  144.1974  164.3975 C.3     1  UNL1        0.0073
      5 C         139.5231  143.5051  163.9587 C.3     1  UNL1        0.0371
      6 C         140.8553  143.0946  163.4048 C.3     1  UNL1        0.0762
      7 C         139.1601  142.1578  164.5090 C.ar    1  UNL1        0.0060
      8 C         139.6596  141.7402  165.8603 C.ar    1  UNL1       -0.0021
      9 C         139.2966  140.3928  166.4107 C.ar    1  UNL1        0.0037
     10 C         138.4341  139.4630  165.6097 C.ar    1  UNL1        0.0736
     11 C         137.9345  139.8807  164.2583 C.ar    1  UNL1        0.0332
     12 C         138.2975  141.2280  163.7080 C.ar    1  UNL1        0.1361
     13 F         137.7980  141.6456  162.3567 F       1  UNL1       -0.2045
     14 C         138.0710  138.1157  166.1600 C.3     1  UNL1        0.4186
     15 F         137.7080  136.7684  166.7103 F       1  UNL1       -0.1659
     16 F         138.6511  137.4616  164.9412 F       1  UNL1       -0.1659
     17 F         137.4909  138.7698  167.3788 F       1  UNL1       -0.1659
     18 C         142.8175  144.3386  162.0830 C.3     1  UNL1        0.0730
     19 C         143.4501  143.0694  161.5945 C.3     1  UNL1        0.0294
     20 C         144.5337  142.4138  162.3983 C.3     1  UNL1        0.0666
     21 S         144.1929  141.3157  163.3617 S.3     1  UNL1       -0.0756
     22 C         143.1308  141.4519  167.0925 C.ar    1  UNL1        0.2029
     23 N         143.6550  142.8426  166.8894 N.ar    1  UNL1       -0.1250
     24 N         144.1167  142.9608  165.4672 N.ar    1  UNL1       -0.1220
     25 C         143.8778  141.6433  164.7912 C.ar    1  UNL1        0.1933
     26 N         143.2685  140.7108  165.7958 N.ar    1  UNL1       -0.2860
     27 C         142.8672  139.2869  165.5471 C.3     1  UNL1        0.1341
     28 C         140.8978  142.8931  168.9863 C.3     1  UNL1        0.0556
     29 C         141.5414  141.5619  169.2388 C.ar    1  UNL1        0.1001
     30 N         141.2715  140.6595  170.4062 N.ar    1  UNL1       -0.2085
     31 C         142.1311  139.4393  170.2571 C.ar    1  UNL1        0.2849
     32 O         142.9322  139.5876  168.9978 O.2     1  UNL1       -0.4283
     33 C         142.5677  140.8995  168.3684 C.ar    1  UNL1        0.1964
@<TRIPOS>BOND
     1    28    29    1
     2    29    30   ar
     3    30    31   ar
     4    31    32   ar
     5    32    33   ar
     6    33    22    1
     7    22    23   ar
     8    23    24   ar
     9    24    25   ar
    10    25    21    1
    11    21    20    1
    12    20    19    1
    13    19    18    1
    14    18     1    1
    15     1     2    1
    16     2     3    1
    17     3     4    1
    18     4     5    1
    19     5     7    1
    20     7     8   ar
    21     8     9   ar
    22     9    10   ar
    23    10    14    1
    24    14    15    1
    25    14    16    1
    26    14    17    1
    27    10    11   ar
    28    11    12   ar
    29    12    13    1
    30     5     6    1
    31    25    26   ar
    32    26    27    1
    33    33    29   ar
    34    26    22   ar
    35     6     1    1
    36     5     3    1
    37    12     7   ar
@<TRIPOS>MOLECULE
*****
 33 37 0 0 0
SMALL
GASTEIGER

@<TRIPOS>ATOM
      1 N         138.4466  140.3702  163.0204 N.3     1  UNL1       -0.2724
      2 C         138.4496  138.9609  162.5068 C.3     1  UNL1        0.0724
      3 C         139.1110  138.0936  163.5366 C.3     1  UNL1        0.0215
      4 C         139.8018  137.4948  164.7258 C.3     1  UNL1        0.0073
      5 C         139.5166  138.9669  164.6867 C.3     1  UNL1        0.0371
      6 C         139.1060  140.3739  164.3676 C.3     1  UNL1        0.0762
      7 C         140.1164  139.2784  166.0258 C.ar    1  UNL1        0.0060
      8 C         141.6070  139.3184  166.1889 C.ar    1  UNL1       -0.0021
      9 C         142.2068  139.6300  167.5280 C.ar    1  UNL1        0.0037
     10 C         141.3161  139.9015  168.7040 C.ar    1  UNL1        0.0736
     11 C         139.8255  139.8615  168.5408 C.ar    1  UNL1        0.0332
     12 C         139.2257  139.5500  167.2017 C.ar    1  UNL1        0.1361
     13 F         137.7351  139.5100  167.0386 F       1  UNL1       -0.2045
     14 C         141.9159  140.2130  170.0431 C.3     1  UNL1        0.4186
     15 F         142.5157  140.5245  171.3822 F       1  UNL1       -0.1659
     16 F         140.6557  139.7534  170.7144 F       1  UNL1       -0.1659
     17 F         143.1760  140.6727  169.3717 F       1  UNL1       -0.1659
     18 C         137.8830  141.5658  162.3112 C.3     1  UNL1        0.0730
     19 C         137.3791  142.7375  163.1007 C.3     1  UNL1        0.0294
     20 C         137.9361  144.1072  162.8484 C.3     1  UNL1        0.0666
     21 S         138.8822  144.7255  163.8347 S.3     1  UNL1       -0.0756
     22 C         142.1446  142.7112  164.4379 C.ar    1  UNL1        0.2029
     23 N         141.5664  142.7477  165.8215 N.ar    1  UNL1       -0.1250
     24 N         140.2740  143.5066  165.7640 N.ar    1  UNL1       -0.1220
     25 C         140.0533  143.9393  164.3448 C.ar    1  UNL1        0.1933
     26 N         141.2095  143.4476  163.5253 N.ar    1  UNL1       -0.2860
     27 C         141.3974  143.6559  162.0517 C.3     1  UNL1        0.1341
     28 C         142.4374  140.0042  162.6388 C.3     1  UNL1        0.0556
     29 C         143.5665  140.8095  163.2105 C.ar    1  UNL1        0.1001
     30 N         145.0285  140.5117  163.0554 N.ar    1  UNL1       -0.2085
     31 C         145.7974  141.5720  163.7866 C.ar    1  UNL1        0.2849
     32 O         144.8108  142.5249  164.3934 O.2     1  UNL1       -0.4283
     33 C         143.4320  142.0536  164.0373 C.ar    1  UNL1        0.1964
@<TRIPOS>BOND
     1    28    29    1
     2    29    30   ar
     3    30    31   ar
     4    31    32   ar
     5    32    33   ar
     6    33    22    1
     7    22    23   ar
     8    23    24   ar
     9    24    25   ar
    10    25    21    1
    11    21    20    1
    12    20    19    1
    13    19    18    1
    14    18     1    1
    15     1     2    1
    16     2     3    1
    17     3     4    1
    18     4     5    1
    19     5     7    1
    20     7     8   ar
    21     8     9   ar
    22     9    10   ar
    23    10    14    1
    24    14    15    1
    25    14    16    1
    26    14    17    1
    27    10    11   ar
    28    11    12   ar
    29    12    13    1
    30     5     6    1
    31    25    26   ar
    32    26    27    1
    33    33    29   ar
    34    26    22   ar
    35     6     1    1
    36     5     3    1
    37    12     7   ar
@<TRIPOS>MOLECULE
*****
 33 37 0 0 0
SMALL
GASTEIGER

@<TRIPOS>ATOM
      1 N         143.0337  143.5726  162.3101 N.3     1  UNL1       -0.2724
      2 C         144.4473  143.3028  161.8870 C.3     1  UNL1        0.0724
      3 C         145.0887  142.4425  162.9351 C.3     1  UNL1        0.0215
      4 C         145.4503  141.6018  164.1236 C.3     1  UNL1        0.0073
      5 C         144.0715  142.1806  164.0060 C.3     1  UNL1        0.0371
      6 C         142.8015  142.8791  163.6197 C.3     1  UNL1        0.0762
      7 C         143.5510  141.6080  165.2910 C.ar    1  UNL1        0.0060
      8 C         143.3852  142.4906  166.4925 C.ar    1  UNL1       -0.0021
      9 C         142.8647  141.9180  167.7776 C.ar    1  UNL1        0.0037
     10 C         142.5099  140.4629  167.8611 C.ar    1  UNL1        0.0736
     11 C         142.6758  139.5804  166.6595 C.ar    1  UNL1        0.0332
     12 C         143.1963  140.1530  165.3745 C.ar    1  UNL1        0.1361
     13 F         143.3620  139.2704  164.1729 F       1  UNL1       -0.2045
     14 C         141.9894  139.8904  169.1461 C.3     1  UNL1        0.4186
     15 F         141.4689  139.3179  170.4310 F       1  UNL1       -0.1659
     16 F         140.6897  139.5619  168.4732 F       1  UNL1       -0.1659
     17 F         143.2892  140.2189  169.8189 F       1  UNL1       -0.1659
     18 C         142.0288  144.3921  161.5560 C.3     1  UNL1        0.0730
     19 C         141.1234  145.3334  162.2936 C.3     1  UNL1        0.0294
     20 C         139.6384  145.2531  162.0984 C.3     1  UNL1        0.0666
     21 S         138.7602  144.7704  163.2146 S.3     1  UNL1       -0.0756
     22 C         139.5321  141.2042  164.5380 C.ar    1  UNL1        0.2029
     23 N         139.8467  142.0360  165.7459 N.ar    1  UNL1       -0.1250
     24 N         139.5959  143.4731  165.3972 N.ar    1  UNL1       -0.1220
     25 C         139.1262  143.5295  163.9738 C.ar    1  UNL1        0.1933
     26 N         139.0868  142.1272  163.4428 N.ar    1  UNL1       -0.2860
     27 C         138.6744  141.7196  162.0594 C.3     1  UNL1        0.1341
     28 C         138.0492  139.0415  166.4806 C.3     1  UNL1        0.0556
     29 C         138.9617  138.7173  165.3351 C.ar    1  UNL1        0.1001
     30 N         139.3527  137.3421  164.8814 N.ar    1  UNL1       -0.2085
     31 C         140.2760  137.4862  163.7080 C.ar    1  UNL1        0.2849
     32 O         140.4556  138.9504  163.4366 O.2     1  UNL1       -0.4283
     33 C         139.6432  139.7113  164.4422 C.ar    1  UNL1        0.1964
@<TRIPOS>BOND
     1    28    29    1
     2    29    30   ar
     3    30    31   ar
     4    31    32   ar
     5    32    33   ar
     6    33    22    1
     7    22    23   ar
     8    23    24   ar
     9    24    25   ar
    10    25    21    1
    11    21    20    1
    12    20    19    1
    13    19    18    1
    14    18     1    1
    15     1     2    1
    16     2     3    1
    17     3     4    1
    18     4     5    1
    19     5     7    1
    20     7     8   ar
    21     8     9   ar
    22     9    10   ar
    23    10    14    1
    24    14    15    1
    25    14    16    1
    26    14    17    1
    27    10    11   ar
    28    11    12   ar
    29    12    13    1
    30     5     6    1
    31    25    26   ar
    32    26    27    1
    33    33    29   ar
    34    26    22   ar
    35     6     1    1
    36     5     3    1
    37    12     7   ar
@<TRIPOS>MOLECULE
*****
 33 37 0 0 0
SMALL
GASTEIGER

@<TRIPOS>ATOM
      1 N         140.4739  138.1626  164.2333 N.3     1  UNL1       -0.2724
      2 C         141.6715  137.6298  163.5040 C.3     1  UNL1        0.0724
      3 C         142.8996  138.1913  164.1571 C.3     1  UNL1        0.0215
      4 C         143.9220  138.8949  164.9994 C.3     1  UNL1        0.0073
      5 C         142.4610  139.0711  165.2900 C.3     1  UNL1        0.0371
      6 C         140.9619  139.0534  165.3371 C.3     1  UNL1        0.0762
      7 C         142.6436  139.9987  166.4546 C.ar    1  UNL1        0.0060
      8 C         142.5565  139.4698  167.8555 C.ar    1  UNL1       -0.0021
      9 C         142.7390  140.3974  169.0202 C.ar    1  UNL1        0.0037
     10 C         143.0086  141.8539  168.7838 C.ar    1  UNL1        0.0736
     11 C         143.0957  142.3828  167.3828 C.ar    1  UNL1        0.0332
     12 C         142.9132  141.4552  166.2182 C.ar    1  UNL1        0.1361
     13 F         143.0003  141.9842  164.8173 F       1  UNL1       -0.2045
     14 C         143.1912  142.7815  169.9483 C.3     1  UNL1        0.4186
     15 F         143.3737  143.7091  171.1129 F       1  UNL1       -0.1659
     16 F         141.7411  143.1582  169.8756 F       1  UNL1       -0.1659
     17 F         144.6412  142.4048  170.0211 F       1  UNL1       -0.1659
     18 C         139.0401  137.8581  163.9147 C.3     1  UNL1        0.0730
     19 C         138.4124  138.4184  162.6730 C.3     1  UNL1        0.0294
     20 C         137.7250  139.7510  162.7157 C.3     1  UNL1        0.0666
     21 S         137.8976  140.7205  161.5842 S.3     1  UNL1       -0.0756
     22 C         140.4015  143.6020  162.2859 C.ar    1  UNL1        0.2029
     23 N         139.1453  144.3718  162.0041 N.ar    1  UNL1       -0.1250
     24 N         138.0545  143.3861  161.7070 N.ar    1  UNL1       -0.1220
     25 C         138.6365  142.0071  161.8051 C.ar    1  UNL1        0.1933
     26 N         140.0870  142.1406  162.1629 N.ar    1  UNL1       -0.2860
     27 C         141.0534  141.0108  162.3626 C.3     1  UNL1        0.1341
     28 C         143.1347  143.3157  160.5259 C.3     1  UNL1        0.0556
     29 C         142.9939  144.0588  161.8213 C.ar    1  UNL1        0.1001
     30 N         144.0848  144.8008  162.5351 N.ar    1  UNL1       -0.2085
     31 C         143.5027  145.3910  163.7852 C.ar    1  UNL1        0.2849
     32 O         142.0521  145.0138  163.8440 O.2     1  UNL1       -0.4283
     33 C         141.7377  144.1904  162.6302 C.ar    1  UNL1        0.1964
@<TRIPOS>BOND
     1    28    29    1
     2    29    30   ar
     3    30    31   ar
     4    31    32   ar
     5    32    33   ar
     6    33    22    1
     7    22    23   ar
     8    23    24   ar
     9    24    25   ar
    10    25    21    1
    11    21    20    1
    12    20    19    1
    13    19    18    1
    14    18     1    1
    15     1     2    1
    16     2     3    1
    17     3     4    1
    18     4     5    1
    19     5     7    1
    20     7     8   ar
    21     8     9   ar
    22     9    10   ar
    23    10    14    1
    24    14    15    1
    25    14    16    1
    26    14    17    1
    27    10    11   ar
    28    11    12   ar
    29    12    13    1
    30     5     6    1
    31    25    26   ar
    32    26    27    1
    33    33    29   ar
    34    26    22   ar
    35     6     1    1
    36     5     3    1
    37    12     7   ar
@<TRIPOS>MOLECULE
*****
 33 37 0 0 0
SMALL
GASTEIGER

@<TRIPOS>ATOM
      1 N         143.7435  140.0074  163.6494 N.3     1  UNL1       -0.2724
      2 C         144.7384  141.0335  163.1940 C.3     1  UNL1        0.0724
      3 C         144.6370  142.2163  164.1108 C.3     1  UNL1        0.0215
      4 C         144.3135  143.2289  165.1691 C.3     1  UNL1        0.0073
      5 C         143.5794  141.9213  165.1328 C.3     1  UNL1        0.0371
      6 C         143.0272  140.5561  164.8476 C.3     1  UNL1        0.0762
      7 C         142.7097  142.1967  166.3235 C.ar    1  UNL1        0.0060
      8 C         143.2406  141.9715  167.7082 C.ar    1  UNL1       -0.0021
      9 C         142.3709  142.2468  168.8990 C.ar    1  UNL1        0.0037
     10 C         140.9702  142.7473  168.7049 C.ar    1  UNL1        0.0736
     11 C         140.4393  142.9725  167.3201 C.ar    1  UNL1        0.0332
     12 C         141.3090  142.6972  166.1295 C.ar    1  UNL1        0.1361
     13 F         140.7781  142.9224  164.7448 F       1  UNL1       -0.2045
     14 C         140.1005  143.0227  169.8956 C.3     1  UNL1        0.4186
     15 F         139.2307  143.2980  171.0863 F       1  UNL1       -0.1659
     16 F         140.3703  144.4913  169.7530 F       1  UNL1       -0.1659
     17 F         139.8307  141.5541  170.0382 F       1  UNL1       -0.1659
     18 C         143.5065  138.6678  163.0174 C.3     1  UNL1        0.0730
     19 C         143.8743  138.4405  161.5811 C.3     1  UNL1        0.0294
     20 C         142.9203  137.7320  160.6657 C.3     1  UNL1        0.0666
     21 S         141.8488  138.5048  159.9552 S.3     1  UNL1       -0.0756
     22 C         139.0907  140.3442  161.9736 C.ar    1  UNL1        0.2029
     23 N         138.4422  139.0111  161.7451 N.ar    1  UNL1       -0.1250
     24 N         139.3965  138.1598  160.9612 N.ar    1  UNL1       -0.1220
     25 C         140.6347  138.9668  160.7052 C.ar    1  UNL1        0.1933
     26 N         140.4457  140.3168  161.3309 N.ar    1  UNL1       -0.2860
     27 C         141.4376  141.4420  161.3165 C.3     1  UNL1        0.1341
     28 C         138.2521  140.3755  165.1273 C.3     1  UNL1        0.0556
     29 C         138.1041  141.5160  164.1642 C.ar    1  UNL1        0.1001
     30 N         137.5447  142.8710  164.4817 N.ar    1  UNL1       -0.2085
     31 C         137.5844  143.6941  163.2284 C.ar    1  UNL1        0.2849
     32 O         138.1683  142.8479  162.1364 O.2     1  UNL1       -0.4283
     33 C         138.4896  141.5016  162.7147 C.ar    1  UNL1        0.1964
@<TRIPOS>BOND
     1    28    29    1
     2    29    30   ar
     3    30    31   ar
     4    31    32   ar
     5    32    33   ar
     6    33    22    1
     7    22    23   ar
     8    23    24   ar
     9    24    25   ar
    10    25    21    1
    11    21    20    1
    12    20    19    1
    13    19    18    1
    14    18     1    1
    15     1     2    1
    16     2     3    1
    17     3     4    1
    18     4     5    1
    19     5     7    1
    20     7     8   ar
    21     8     9   ar
    22     9    10   ar
    23    10    14    1
    24    14    15    1
    25    14    16    1
    26    14    17    1
    27    10    11   ar
    28    11    12   ar
    29    12    13    1
    30     5     6    1
    31    25    26   ar
    32    26    27    1
    33    33    29   ar
    34    26    22   ar
    35     6     1    1
    36     5     3    1
    37    12     7   ar
@<TRIPOS>MOLECULE
*****
 33 37 0 0 0
SMALL
GASTEIGER

@<TRIPOS>ATOM
      1 N         142.9848  143.3838  162.7584 N.3     1  UNL1       -0.2724
      2 C         144.1765  142.6249  162.2543 C.3     1  UNL1        0.0724
      3 C         144.5005  141.5538  163.2532 C.3     1  UNL1        0.0215
      4 C         144.5788  140.5997  164.4079 C.3     1  UNL1        0.0073
      5 C         143.5091  141.6507  164.3747 C.3     1  UNL1        0.0371
      6 C         142.5724  142.7817  164.0689 C.3     1  UNL1        0.0762
      7 C         142.8730  141.2684  165.6782 C.ar    1  UNL1        0.0060
      8 C         141.8953  140.1320  165.7307 C.ar    1  UNL1       -0.0021
      9 C         141.2591  139.7496  167.0343 C.ar    1  UNL1        0.0037
     10 C         141.6008  140.5036  168.2853 C.ar    1  UNL1        0.0736
     11 C         142.5786  141.6400  168.2326 C.ar    1  UNL1        0.0332
     12 C         143.2147  142.0223  166.9291 C.ar    1  UNL1        0.1361
     13 F         144.1924  143.1586  166.8766 F       1  UNL1       -0.2045
     14 C         140.9647  140.1212  169.5888 C.3     1  UNL1        0.4186
     15 F         140.3286  139.7389  170.8923 F       1  UNL1       -0.1659
     16 F         142.1576  140.6526  170.3267 F       1  UNL1       -0.1659
     17 F         139.7718  139.5898  168.8508 F       1  UNL1       -0.1659
     18 C         142.3221  144.5415  162.0725 C.3     1  UNL1        0.0730
     19 C         141.1944  145.2664  162.7454 C.3     1  UNL1        0.0294
     20 C         139.8337  145.2873  162.1145 C.3     1  UNL1        0.0666
     21 S         138.6408  144.8090  162.8880 S.3     1  UNL1       -0.0756
     22 C         138.1366  141.0407  163.6693 C.ar    1  UNL1        0.2029
     23 N         137.4777  141.1489  162.3262 N.ar    1  UNL1       -0.1250
     24 N         137.5864  142.5736  161.8700 N.ar    1  UNL1       -0.1220
     25 C         138.3125  143.3460  162.9312 C.ar    1  UNL1        0.1933
     26 N         138.6525  142.3985  164.0433 N.ar    1  UNL1       -0.2860
     27 C         139.3806  142.7478  165.3074 C.3     1  UNL1        0.1341
     28 C         139.4040  138.2016  162.6777 C.3     1  UNL1        0.0556
     29 C         138.8407  138.4886  164.0381 C.ar    1  UNL1        0.1001
     30 N         138.7611  137.5208  165.1814 N.ar    1  UNL1       -0.2085
     31 C         138.1294  138.2277  166.3438 C.ar    1  UNL1        0.2849
     32 O         137.8185  139.6322  165.9189 O.2     1  UNL1       -0.4283
     33 C         138.2582  139.7934  164.4938 C.ar    1  UNL1        0.1964
@<TRIPOS>BOND
     1    28    29    1
     2    29    30   ar
     3    30    31   ar
     4    31    32   ar
     5    32    33   ar
     6    33    22    1
     7    22    23   ar
     8    23    24   ar
     9    24    25   ar
    10    25    21    1
    11    21    20    1
    12    20    19    1
    13    19    18    1
    14    18     1    1
    15     1     2    1
    16     2     3    1
    17     3     4    1
    18     4     5    1
    19     5     7    1
    20     7     8   ar
    21     8     9   ar
    22     9    10   ar
    23    10    14    1
    24    14    15    1
    25    14    16    1
    26    14    17    1
    27    10    11   ar
    28    11    12   ar
    29    12    13    1
    30     5     6    1
    31    25    26   ar
    32    26    27    1
    33    33    29   ar
    34    26    22   ar
    35     6     1    1
    36     5     3    1
    37    12     7   ar
@<TRIPOS>MOLECULE
*****
 33 37 0 0 0
SMALL
GASTEIGER

@<TRIPOS>ATOM
      1 N         141.8644  138.2504  162.9436 N.3     1  UNL1       -0.2724
      2 C         143.2150  138.3499  162.2987 C.3     1  UNL1        0.0724
      3 C         144.1264  139.0780  163.2418 C.3     1  UNL1        0.0215
      4 C         144.7842  139.8175  164.3689 C.3     1  UNL1        0.0073
      5 C         143.3391  139.4284  164.4695 C.3     1  UNL1        0.0371
      6 C         141.9410  138.9169  164.2852 C.3     1  UNL1        0.0762
      7 C         143.1136  140.0136  165.8321 C.ar    1  UNL1        0.0060
      8 C         142.9211  141.4927  165.9906 C.ar    1  UNL1       -0.0021
      9 C         142.6956  142.0779  167.3533 C.ar    1  UNL1        0.0037
     10 C         142.6627  141.1840  168.5574 C.ar    1  UNL1        0.0736
     11 C         142.8552  139.7048  168.3988 C.ar    1  UNL1        0.0332
     12 C         143.0806  139.1196  167.0362 C.ar    1  UNL1        0.1361
     13 F         143.2731  137.6405  166.8776 F       1  UNL1       -0.2045
     14 C         142.4372  141.7691  169.9200 C.3     1  UNL1        0.4186
     15 F         142.2117  142.3543  171.2826 F       1  UNL1       -0.1659
     16 F         142.0929  143.0891  169.2961 F       1  UNL1       -0.1659
     17 F         142.7815  140.4492  170.5438 F       1  UNL1       -0.1659
     18 C         140.6502  137.5988  162.3509 C.3     1  UNL1        0.0730
     19 C         139.3013  137.8261  162.9662 C.3     1  UNL1        0.0294
     20 C         138.1773  138.3646  162.1315 C.3     1  UNL1        0.0666
     21 S         137.9734  139.8461  162.0141 S.3     1  UNL1       -0.0756
     22 C         140.9431  142.1878  162.8872 C.ar    1  UNL1        0.2029
     23 N         140.1105  142.2999  164.1299 N.ar    1  UNL1       -0.1250
     24 N         138.8968  141.4364  163.9541 N.ar    1  UNL1       -0.1220
     25 C         138.9792  140.7905  162.6028 C.ar    1  UNL1        0.1933
     26 N         140.2439  141.2550  161.9434 N.ar    1  UNL1       -0.2860
     27 C         140.7249  140.8565  160.5796 C.3     1  UNL1        0.1341
     28 C         141.5620  145.3476  163.4189 C.3     1  UNL1        0.0556
     29 C         142.5306  144.3383  162.8774 C.ar    1  UNL1        0.1001
     30 N         143.9538  144.6043  162.4852 N.ar    1  UNL1       -0.2085
     31 C         144.5489  143.3164  161.9984 C.ar    1  UNL1        0.2849
     32 O         143.4936  142.2544  162.0897 O.2     1  UNL1       -0.4283
     33 C         142.2462  142.8860  162.6330 C.ar    1  UNL1        0.1964
@<TRIPOS>BOND
     1    28    29    1
     2    29    30   ar
     3    30    31   ar
     4    31    32   ar
     5    32    33   ar
     6    33    22    1
     7    22    23   ar
     8    23    24   ar
     9    24    25   ar
    10    25    21    1
    11    21    20    1
    12    20    19    1
    13    19    18    1
    14    18     1    1
    15     1     2    1
    16     2     3    1
    17     3     4    1
    18     4     5    1
    19     5     7    1
    20     7     8   ar
    21     8     9   ar
    22     9    10   ar
    23    10    14    1
    24    14    15    1
    25    14    16    1
    26    14    17    1
    27    10    11   ar
    28    11    12   ar
    29    12    13    1
    30     5     6    1
    31    25    26   ar
    32    26    27    1
    33    33    29   ar
    34    26    22   ar
    35     6     1    1
    36     5     3    1
    37    12     7   ar
@<TRIPOS>MOLECULE
*****
 33 37 0 0 0
SMALL
GASTEIGER

@<TRIPOS>ATOM
      1 N         143.2924  139.7797  163.9487 N.3     1  UNL1       -0.2724
      2 C         144.4191  140.6667  163.5084 C.3     1  UNL1        0.0724
      3 C         144.4593  141.8542  164.4239 C.3     1  UNL1        0.0215
      4 C         144.2550  142.9020  165.4776 C.3     1  UNL1        0.0073
      5 C         143.3574  141.7012  165.4301 C.3     1  UNL1        0.0371
      6 C         142.6363  140.4191  165.1364 C.3     1  UNL1        0.0762
      7 C         142.5136  142.0895  166.6079 C.ar    1  UNL1        0.0060
      8 C         143.0824  142.0182  167.9941 C.ar    1  UNL1       -0.0021
      9 C         142.2385  142.4065  169.1719 C.ar    1  UNL1        0.0037
     10 C         140.8259  142.8661  168.9635 C.ar    1  UNL1        0.0736
     11 C         140.2572  142.9374  167.5773 C.ar    1  UNL1        0.0332
     12 C         141.1010  142.5491  166.3995 C.ar    1  UNL1        0.1361
     13 F         140.5322  142.6204  165.0134 F       1  UNL1       -0.2045
     14 C         139.9821  143.2544  170.1413 C.3     1  UNL1        0.4186
     15 F         139.1383  143.6427  171.3191 F       1  UNL1       -0.1659
     16 F         140.4464  144.6743  170.0058 F       1  UNL1       -0.1659
     17 F         139.5179  141.8345  170.2768 F       1  UNL1       -0.1659
     18 C         142.8922  138.4814  163.3130 C.3     1  UNL1        0.0730
     19 C         141.8313  137.6315  163.9471 C.3     1  UNL1        0.0294
     20 C         140.3855  137.8777  163.6325 C.3     1  UNL1        0.0666
     21 S         139.9982  138.5009  162.3241 S.3     1  UNL1       -0.0756
     22 C         139.0535  142.2497  161.9794 C.ar    1  UNL1        0.2029
     23 N         137.7830  141.6808  162.5382 N.ar    1  UNL1       -0.1250
     24 N         137.9823  140.2073  162.7354 N.ar    1  UNL1       -0.1220
     25 C         139.3759  139.8654  162.2984 C.ar    1  UNL1        0.1933
     26 N         140.0379  141.1278  161.8312 N.ar    1  UNL1       -0.2860
     27 C         141.4385  141.2471  161.3077 C.3     1  UNL1        0.1341
     28 C         138.6529  144.8020  163.9731 C.3     1  UNL1        0.0556
     29 C         139.1126  144.8612  162.5465 C.ar    1  UNL1        0.1001
     30 N         139.4689  146.1040  161.7859 N.ar    1  UNL1       -0.2085
     31 C         139.8732  145.6989  160.3994 C.ar    1  UNL1        0.2849
     32 O         139.7668  144.2058  160.3031 O.2     1  UNL1       -0.4283
     33 C         139.2967  143.6881  161.6302 C.ar    1  UNL1        0.1964
@<TRIPOS>BOND
     1    28    29    1
     2    29    30   ar
     3    30    31   ar
     4    31    32   ar
     5    32    33   ar
     6    33    22    1
     7    22    23   ar
     8    23    24   ar
     9    24    25   ar
    10    25    21    1
    11    21    20    1
    12    20    19    1
    13    19    18    1
    14    18     1    1
    15     1     2    1
    16     2     3    1
    17     3     4    1
    18     4     5    1
    19     5     7    1
    20     7     8   ar
    21     8     9   ar
    22     9    10   ar
    23    10    14    1
    24    14    15    1
    25    14    16    1
    26    14    17    1
    27    10    11   ar
    28    11    12   ar
    29    12    13    1
    30     5     6    1
    31    25    26   ar
    32    26    27    1
    33    33    29   ar
    34    26    22   ar
    35     6     1    1
    36     5     3    1
    37    12     7   ar
