@<TRIPOS>MOLECULE
*****
 40 45 0 0 0
SMALL
GASTEIGER

@<TRIPOS>ATOM
      1 C         140.2034  143.6968  161.6814 C.3     1  UNL1        0.0570
      2 C         141.2978  143.2871  160.7410 C.3     1  UNL1        0.0331
      3 C         142.7180  143.2330  161.2210 C.3     1  UNL1        0.0735
      4 N         143.0436  143.5885  162.6414 N.3     1  UNL1       -0.2710
      5 C         141.9491  143.9983  163.5818 C.3     1  UNL1        0.0735
      6 C         140.5290  144.0524  163.1018 C.3     1  UNL1        0.0331
      7 N         138.7833  143.7509  161.2013 N.3     1  UNL1       -0.2934
      8 H         138.2404  144.2014  161.9380 H       1  UNL1        0.1236
      9 C         138.0631  142.4841  160.8456 C.3     1  UNL1        0.1152
     10 O         137.8523  138.7197  167.6673 O.2     1  UNL1       -0.2707
     11 C         138.1529  138.7296  166.1977 C.2     1  UNL1        0.2718
     12 C         138.6840  137.4945  165.5326 C.3     1  UNL1        0.2898
     13 O         138.9846  137.5043  164.0630 O.3     1  UNL1       -0.4628
     14 C         138.7542  138.7492  163.2587 C.ar    1  UNL1        0.1708
     15 C         139.0549  138.7591  161.7892 C.ar    1  UNL1        0.0411
     16 C         138.8245  140.0040  160.9848 C.ar    1  UNL1        0.0193
     17 C         138.2934  141.2392  161.6500 C.ar    1  UNL1        0.0765
     18 N         137.9928  141.2293  163.1195 N.ar    1  UNL1       -0.2304
     19 C         138.2232  139.9843  163.9239 C.ar    1  UNL1        0.1682
     20 N         137.9226  139.9745  165.3934 N.am    1  UNL1       -0.2639
     21 H         137.5740  140.7851  165.8300 H       1  UNL1        0.1565
     22 C         144.4636  143.5344  163.1214 C.3     1  UNL1        0.0970
     23 C         144.9986  142.2773  163.7405 C.3     1  UNL1        0.1264
     24 N         144.1160  141.0715  163.8720 N.ar    1  UNL1       -0.2926
     25 C         144.0166  140.0881  162.7438 C.ar    1  UNL1        0.2611
     26 O         144.8000  140.3104  161.4840 O.2     1  UNL1       -0.2670
     27 C         143.1341  138.8824  162.8753 C.ar    1  UNL1        0.0623
     28 C         142.3507  138.6601  164.1351 C.ar    1  UNL1        0.0255
     29 C         142.4500  139.6436  165.2634 C.ar    1  UNL1        0.0975
     30 N         141.6668  139.4214  166.5231 N.ar    1  UNL1       -0.2392
     31 C         141.7661  140.4048  167.6514 C.ar    1  UNL1        0.1357
     32 C         142.6487  141.6105  167.5199 C.ar    1  UNL1        0.1590
     33 C         143.4320  141.8328  166.2601 C.ar    1  UNL1        0.0573
     34 C         143.3327  140.8493  165.1318 C.ar    1  UNL1        0.0832
     35 O         142.7480  142.5939  168.6482 O.3     1  UNL1       -0.4749
     36 C         141.6937  142.6205  169.7149 C.3     1  UNL1        0.1979
     37 C         140.3652  143.3112  169.6244 C.3     1  UNL1        0.0782
     38 C         139.6332  143.0787  170.9129 C.3     1  UNL1        0.1461
     39 O         140.5093  142.2443  171.7997 O.3     1  UNL1       -0.3498
     40 C         141.7827  141.9612  171.0592 C.3     1  UNL1        0.1855
@<TRIPOS>BOND
     1    10    11    2
     2    11    12    1
     3    12    13    1
     4    13    14    1
     5    14    15   ar
     6    15    16   ar
     7    16    17   ar
     8    17     9    1
     9     9     7    1
    10     7     1    1
    11     1     2    1
    12     2     3    1
    13     3     4    1
    14     4    22    1
    15    22    23    1
    16    23    24    1
    17    24    25   ar
    18    25    26    2
    19    25    27   ar
    20    27    28   ar
    21    28    29   ar
    22    29    30   ar
    23    30    31   ar
    24    31    32   ar
    25    32    35    1
    26    36    35    1
    27    36    37    1
    28    37    38    1
    29    38    39    1
    30    39    40    1
    31    32    33   ar
    32    33    34   ar
    33     4     5    1
    34     5     6    1
    35    17    18   ar
    36    18    19   ar
    37    19    20    1
    38    20    11   am
    39    19    14   ar
    40     6     1    1
    41    34    24   ar
    42    34    29   ar
    43    40    36    1
    44     7     8    1
    45    20    21    1
@<TRIPOS>MOLECULE
*****
 40 45 0 0 0
SMALL
GASTEIGER

@<TRIPOS>ATOM
      1 C         138.1355  140.3265  161.1953 C.3     1  UNL1        0.0570
      2 C         137.6038  140.4400  162.5933 C.3     1  UNL1        0.0331
      3 C         137.4654  141.7883  163.2359 C.3     1  UNL1        0.0735
      4 N         137.8586  143.0231  162.4805 N.3     1  UNL1       -0.2710
      5 C         138.3903  142.9095  161.0825 C.3     1  UNL1        0.0735
      6 C         138.5287  141.5613  160.4399 C.3     1  UNL1        0.0331
      7 N         138.2739  138.9782  160.5527 N.3     1  UNL1       -0.2934
      8 H         137.7789  138.3154  161.1495 H       1  UNL1        0.1236
      9 C         139.6364  138.4025  160.3032 C.3     1  UNL1        0.1152
     10 O         146.1372  141.6968  163.0667 O.2     1  UNL1       -0.2707
     11 C         145.0299  140.6942  163.2030 C.2     1  UNL1        0.2718
     12 C         144.9822  139.7871  164.3966 C.3     1  UNL1        0.2898
     13 O         143.8748  138.7844  164.5328 O.3     1  UNL1       -0.4628
     14 C         142.8152  138.6889  163.4754 C.ar    1  UNL1        0.1708
     15 C         141.7079  137.6863  163.6117 C.ar    1  UNL1        0.0411
     16 C         140.6483  137.5908  162.5543 C.ar    1  UNL1        0.0193
     17 C         140.6960  138.4980  161.3606 C.ar    1  UNL1        0.0765
     18 N         141.8033  139.5006  161.2244 N.ar    1  UNL1       -0.2304
     19 C         142.8630  139.5961  162.2818 C.ar    1  UNL1        0.1682
     20 N         143.9703  140.5987  162.1456 N.am    1  UNL1       -0.2639
     21 H         144.0016  141.1941  161.3622 H       1  UNL1        0.1565
     22 C         137.7203  144.3713  163.1231 C.3     1  UNL1        0.0970
     23 C         138.6871  144.7975  164.1878 C.3     1  UNL1        0.1264
     24 N         140.1520  144.5181  164.0260 N.ar    1  UNL1       -0.2926
     25 C         140.9315  145.2048  162.9440 C.ar    1  UNL1        0.2611
     26 O         140.2461  146.1710  162.0237 O.2     1  UNL1       -0.2670
     27 C         142.3963  144.9255  162.7822 C.ar    1  UNL1        0.0623
     28 C         143.0817  143.9593  163.7024 C.ar    1  UNL1        0.0255
     29 C         142.3022  143.2725  164.7844 C.ar    1  UNL1        0.0975
     30 N         142.9876  142.3064  165.7046 N.ar    1  UNL1       -0.2392
     31 C         142.2081  141.6196  166.7866 C.ar    1  UNL1        0.1357
     32 C         140.7433  141.8990  166.9484 C.ar    1  UNL1        0.1590
     33 C         140.0579  142.8652  166.0282 C.ar    1  UNL1        0.0573
     34 C         140.8373  143.5519  164.9462 C.ar    1  UNL1        0.0832
     35 O         139.9638  141.2122  168.0305 O.3     1  UNL1       -0.4749
     36 C         140.3636  141.3823  169.4662 C.3     1  UNL1        0.1979
     37 C         141.3605  140.5432  170.2092 C.3     1  UNL1        0.0782
     38 C         141.4497  141.0637  171.6132 C.3     1  UNL1        0.1461
     39 O         140.5080  142.2246  171.7378 O.3     1  UNL1       -0.3498
     40 C         139.8367  142.4215  170.4110 C.3     1  UNL1        0.1855
@<TRIPOS>BOND
     1    10    11    2
     2    11    12    1
     3    12    13    1
     4    13    14    1
     5    14    15   ar
     6    15    16   ar
     7    16    17   ar
     8    17     9    1
     9     9     7    1
    10     7     1    1
    11     1     2    1
    12     2     3    1
    13     3     4    1
    14     4    22    1
    15    22    23    1
    16    23    24    1
    17    24    25   ar
    18    25    26    2
    19    25    27   ar
    20    27    28   ar
    21    28    29   ar
    22    29    30   ar
    23    30    31   ar
    24    31    32   ar
    25    32    35    1
    26    36    35    1
    27    36    37    1
    28    37    38    1
    29    38    39    1
    30    39    40    1
    31    32    33   ar
    32    33    34   ar
    33     4     5    1
    34     5     6    1
    35    17    18   ar
    36    18    19   ar
    37    19    20    1
    38    20    11   am
    39    19    14   ar
    40     6     1    1
    41    34    24   ar
    42    34    29   ar
    43    40    36    1
    44     7     8    1
    45    20    21    1
@<TRIPOS>MOLECULE
*****
 40 45 0 0 0
SMALL
GASTEIGER

@<TRIPOS>ATOM
      1 C         144.2383  139.7316  163.3054 C.3     1  UNL1        0.0570
      2 C         143.9531  139.4620  164.7531 C.3     1  UNL1        0.0331
      3 C         142.7306  138.6860  165.1449 C.3     1  UNL1        0.0735
      4 N         141.7934  138.1796  164.0889 N.3     1  UNL1       -0.2710
      5 C         142.0786  138.4493  162.6411 C.3     1  UNL1        0.0735
      6 C         143.3010  139.2253  162.2494 C.3     1  UNL1        0.0331
      7 N         145.4607  140.5076  162.9137 N.3     1  UNL1       -0.2934
      8 H         146.2601  140.0241  163.3229 H       1  UNL1        0.1236
      9 C         145.5864  141.9526  163.2964 C.3     1  UNL1        0.1152
     10 O         140.2777  145.5077  158.8321 O.2     1  UNL1       -0.2707
     11 C         140.8680  145.2397  160.1848 C.2     1  UNL1        0.2718
     12 C         140.2790  145.8887  161.4021 C.3     1  UNL1        0.2898
     13 O         140.8693  145.6207  162.7548 O.3     1  UNL1       -0.4628
     14 C         142.0485  144.7037  162.8902 C.ar    1  UNL1        0.1708
     15 C         142.6388  144.4357  164.2429 C.ar    1  UNL1        0.0411
     16 C         143.8181  143.5187  164.3783 C.ar    1  UNL1        0.0193
     17 C         144.4071  142.8696  163.1610 C.ar    1  UNL1        0.0765
     18 N         143.8168  143.1376  161.8083 N.ar    1  UNL1       -0.2304
     19 C         142.6375  144.0547  161.6729 C.ar    1  UNL1        0.1682
     20 N         142.0472  144.3227  160.3202 N.am    1  UNL1       -0.2639
     21 H         142.4338  143.8967  159.5213 H       1  UNL1        0.1565
     22 C         140.5710  137.4036  164.4806 C.3     1  UNL1        0.0970
     23 C         139.3084  138.1268  164.8451 C.3     1  UNL1        0.1264
     24 N         138.8840  139.3351  164.0639 N.ar    1  UNL1       -0.2926
     25 C         138.2213  139.1700  162.7284 C.ar    1  UNL1        0.2611
     26 O         137.9831  137.7966  162.1740 O.2     1  UNL1       -0.2670
     27 C         137.7969  140.3781  161.9473 C.ar    1  UNL1        0.0623
     28 C         138.0351  141.7515  162.5017 C.ar    1  UNL1        0.0255
     29 C         138.6978  141.9165  163.8372 C.ar    1  UNL1        0.0975
     30 N         138.9360  143.2898  164.3916 N.ar    1  UNL1       -0.2392
     31 C         139.5987  143.4549  165.7272 C.ar    1  UNL1        0.1357
     32 C         140.0231  142.2467  166.5083 C.ar    1  UNL1        0.1590
     33 C         139.7849  140.8734  165.9539 C.ar    1  UNL1        0.0573
     34 C         139.1222  140.7083  164.6183 C.ar    1  UNL1        0.0832
     35 O         140.6858  142.4118  167.8438 O.3     1  UNL1       -0.4749
     36 C         140.9984  141.2064  168.6800 C.3     1  UNL1        0.1979
     37 C         142.3020  140.4646  168.7050 C.3     1  UNL1        0.0782
     38 C         142.1717  139.3309  169.6785 C.3     1  UNL1        0.1461
     39 O         140.7875  139.3720  170.2552 O.3     1  UNL1       -0.3498
     40 C         140.0624  140.5311  169.6381 C.3     1  UNL1        0.1855
@<TRIPOS>BOND
     1    10    11    2
     2    11    12    1
     3    12    13    1
     4    13    14    1
     5    14    15   ar
     6    15    16   ar
     7    16    17   ar
     8    17     9    1
     9     9     7    1
    10     7     1    1
    11     1     2    1
    12     2     3    1
    13     3     4    1
    14     4    22    1
    15    22    23    1
    16    23    24    1
    17    24    25   ar
    18    25    26    2
    19    25    27   ar
    20    27    28   ar
    21    28    29   ar
    22    29    30   ar
    23    30    31   ar
    24    31    32   ar
    25    32    35    1
    26    36    35    1
    27    36    37    1
    28    37    38    1
    29    38    39    1
    30    39    40    1
    31    32    33   ar
    32    33    34   ar
    33     4     5    1
    34     5     6    1
    35    17    18   ar
    36    18    19   ar
    37    19    20    1
    38    20    11   am
    39    19    14   ar
    40     6     1    1
    41    34    24   ar
    42    34    29   ar
    43    40    36    1
    44     7     8    1
    45    20    21    1
@<TRIPOS>MOLECULE
*****
 40 45 0 0 0
SMALL
GASTEIGER

@<TRIPOS>ATOM
      1 C         137.8942  143.1698  162.8580 C.3     1  UNL1        0.0570
      2 C         137.9158  142.8057  164.3130 C.3     1  UNL1        0.0331
      3 C         138.1027  141.3756  164.7256 C.3     1  UNL1        0.0735
      4 N         138.2680  140.3098  163.6831 N.3     1  UNL1       -0.2710
      5 C         138.2463  140.6740  162.2281 C.3     1  UNL1        0.0735
      6 C         138.0594  142.1039  161.8156 C.3     1  UNL1        0.0331
      7 N         137.7072  144.5997  162.4455 N.3     1  UNL1       -0.2934
      8 H         137.3193  144.5858  161.5023 H       1  UNL1        0.1236
      9 C         138.8823  145.5318  162.4167 C.3     1  UNL1        0.1152
     10 O         144.6349  141.9384  158.5768 O.2     1  UNL1       -0.2707
     11 C         144.1118  142.5844  159.8255 C.2     1  UNL1        0.2718
     12 C         144.9831  142.6785  161.0428 C.3     1  UNL1        0.2898
     13 O         144.4600  143.3244  162.2914 O.3     1  UNL1       -0.4628
     14 C         143.0656  143.8763  162.3228 C.ar    1  UNL1        0.1708
     15 C         142.5425  144.5222  163.5714 C.ar    1  UNL1        0.0411
     16 C         141.1481  145.0740  163.6027 C.ar    1  UNL1        0.0193
     17 C         140.2767  144.9799  162.3854 C.ar    1  UNL1        0.0765
     18 N         140.7998  144.3340  161.1367 N.ar    1  UNL1       -0.2304
     19 C         142.1943  143.7821  161.1055 C.ar    1  UNL1        0.1682
     20 N         142.7174  143.1362  159.8568 N.am    1  UNL1       -0.2639
     21 H         142.1455  143.0744  159.0578 H       1  UNL1        0.1565
     22 C         138.4549  138.8798  164.0957 C.3     1  UNL1        0.0970
     23 C         139.6326  138.4904  164.9390 C.3     1  UNL1        0.1264
     24 N         141.0177  138.8877  164.5223 N.ar    1  UNL1       -0.2926
     25 C         141.7299  138.1142  163.4525 C.ar    1  UNL1        0.2611
     26 O         141.0570  136.9433  162.7995 O.2     1  UNL1       -0.2670
     27 C         143.1150  138.5115  163.0357 C.ar    1  UNL1        0.0623
     28 C         143.7879  139.6823  163.6887 C.ar    1  UNL1        0.0255
     29 C         143.0757  140.4558  164.7585 C.ar    1  UNL1        0.0975
     30 N         143.7486  141.6266  165.4115 N.ar    1  UNL1       -0.2392
     31 C         143.0364  142.4001  166.4813 C.ar    1  UNL1        0.1357
     32 C         141.6514  142.0029  166.8981 C.ar    1  UNL1        0.1590
     33 C         140.9784  140.8320  166.2450 C.ar    1  UNL1        0.0573
     34 C         141.6906  140.0585  165.1753 C.ar    1  UNL1        0.0832
     35 O         140.9392  142.7764  167.9678 O.3     1  UNL1       -0.4749
     36 C         141.0014  142.3156  169.3940 C.3     1  UNL1        0.1979
     37 C         141.9225  141.2663  169.9422 C.3     1  UNL1        0.0782
     38 C         141.6438  141.1254  171.4093 C.3     1  UNL1        0.1461
     39 O         140.5503  142.0876  171.7679 O.3     1  UNL1       -0.3498
     40 C         140.1533  142.8232  170.5223 C.3     1  UNL1        0.1855
@<TRIPOS>BOND
     1    10    11    2
     2    11    12    1
     3    12    13    1
     4    13    14    1
     5    14    15   ar
     6    15    16   ar
     7    16    17   ar
     8    17     9    1
     9     9     7    1
    10     7     1    1
    11     1     2    1
    12     2     3    1
    13     3     4    1
    14     4    22    1
    15    22    23    1
    16    23    24    1
    17    24    25   ar
    18    25    26    2
    19    25    27   ar
    20    27    28   ar
    21    28    29   ar
    22    29    30   ar
    23    30    31   ar
    24    31    32   ar
    25    32    35    1
    26    36    35    1
    27    36    37    1
    28    37    38    1
    29    38    39    1
    30    39    40    1
    31    32    33   ar
    32    33    34   ar
    33     4     5    1
    34     5     6    1
    35    17    18   ar
    36    18    19   ar
    37    19    20    1
    38    20    11   am
    39    19    14   ar
    40     6     1    1
    41    34    24   ar
    42    34    29   ar
    43    40    36    1
    44     7     8    1
    45    20    21    1
@<TRIPOS>MOLECULE
*****
 40 45 0 0 0
SMALL
GASTEIGER

@<TRIPOS>ATOM
      1 C         143.2592  143.3427  164.7503 C.3     1  UNL1        0.0570
      2 C         142.8470  144.2825  163.6564 C.3     1  UNL1        0.0331
      3 C         141.3930  144.5637  163.4175 C.3     1  UNL1        0.0735
      4 N         140.3514  143.9051  164.2726 N.3     1  UNL1       -0.2710
      5 C         140.7637  142.9652  165.3666 C.3     1  UNL1        0.0735
      6 C         142.2176  142.6840  165.6054 C.3     1  UNL1        0.0331
      7 N         144.7131  143.0615  164.9892 N.3     1  UNL1       -0.2934
      8 H         145.1772  143.9655  165.0777 H       1  UNL1        0.1236
      9 C         145.4981  142.2680  163.9870 C.3     1  UNL1        0.1152
     10 O         142.8007  139.1552  157.3700 O.2     1  UNL1       -0.2707
     11 C         143.0505  139.0546  158.8457 C.2     1  UNL1        0.2718
     12 C         142.6511  137.8159  159.5913 C.3     1  UNL1        0.2898
     13 O         142.9010  137.7153  161.0669 O.3     1  UNL1       -0.4628
     14 C         143.5503  138.8535  161.7969 C.ar    1  UNL1        0.1708
     15 C         143.8001  138.7529  163.2725 C.ar    1  UNL1        0.0411
     16 C         144.4494  139.8910  164.0025 C.ar    1  UNL1        0.0193
     17 C         144.8489  141.1299  163.2570 C.ar    1  UNL1        0.0765
     18 N         144.5990  141.2305  161.7813 N.ar    1  UNL1       -0.2304
     19 C         143.9497  140.0922  161.0513 C.ar    1  UNL1        0.1682
     20 N         143.6998  140.1928  159.5757 N.am    1  UNL1       -0.2639
     21 H         143.9620  141.0058  159.0863 H       1  UNL1        0.1565
     22 C         138.8975  144.1862  164.0338 C.3     1  UNL1        0.0970
     23 C         137.8952  143.0732  164.1148 C.3     1  UNL1        0.1264
     24 N         138.0930  141.8255  163.3060 N.ar    1  UNL1       -0.2926
     25 C         138.0936  141.8951  161.8076 C.ar    1  UNL1        0.2611
     26 O         137.8964  143.2126  161.1180 O.2     1  UNL1       -0.2670
     27 C         138.2913  140.6475  160.9989 C.ar    1  UNL1        0.0623
     28 C         138.4885  139.3300  161.6885 C.ar    1  UNL1        0.0255
     29 C         138.4879  139.2603  163.1869 C.ar    1  UNL1        0.0975
     30 N         138.6851  137.9430  163.8765 N.ar    1  UNL1       -0.2392
     31 C         138.6845  137.8733  165.3749 C.ar    1  UNL1        0.1357
     32 C         138.4868  139.1209  166.1836 C.ar    1  UNL1        0.1590
     33 C         138.2896  140.4384  165.4940 C.ar    1  UNL1        0.0573
     34 C         138.2902  140.5081  163.9956 C.ar    1  UNL1        0.0832
     35 O         138.4862  139.0513  167.6820 O.3     1  UNL1       -0.4749
     36 C         139.4309  139.9069  168.4730 C.3     1  UNL1        0.1979
     37 C         139.1228  140.5927  169.7710 C.3     1  UNL1        0.0782
     38 C         140.3509  141.3367  170.2051 C.3     1  UNL1        0.1461
     39 O         141.4179  141.1107  169.1752 O.3     1  UNL1       -0.3498
     40 C         140.8493  140.2270  168.1048 C.3     1  UNL1        0.1855
@<TRIPOS>BOND
     1    10    11    2
     2    11    12    1
     3    12    13    1
     4    13    14    1
     5    14    15   ar
     6    15    16   ar
     7    16    17   ar
     8    17     9    1
     9     9     7    1
    10     7     1    1
    11     1     2    1
    12     2     3    1
    13     3     4    1
    14     4    22    1
    15    22    23    1
    16    23    24    1
    17    24    25   ar
    18    25    26    2
    19    25    27   ar
    20    27    28   ar
    21    28    29   ar
    22    29    30   ar
    23    30    31   ar
    24    31    32   ar
    25    32    35    1
    26    36    35    1
    27    36    37    1
    28    37    38    1
    29    38    39    1
    30    39    40    1
    31    32    33   ar
    32    33    34   ar
    33     4     5    1
    34     5     6    1
    35    17    18   ar
    36    18    19   ar
    37    19    20    1
    38    20    11   am
    39    19    14   ar
    40     6     1    1
    41    34    24   ar
    42    34    29   ar
    43    40    36    1
    44     7     8    1
    45    20    21    1
@<TRIPOS>MOLECULE
*****
 40 45 0 0 0
SMALL
GASTEIGER

@<TRIPOS>ATOM
      1 C         142.1922  144.5901  163.2234 C.3     1  UNL1        0.0570
      2 C         142.2606  143.8700  164.5375 C.3     1  UNL1        0.0331
      3 C         143.0672  142.6114  164.6620 C.3     1  UNL1        0.0735
      4 N         143.8053  142.0729  163.4724 N.3     1  UNL1       -0.2710
      5 C         143.7369  142.7930  162.1582 C.3     1  UNL1        0.0735
      6 C         142.9304  144.0515  162.0338 C.3     1  UNL1        0.0331
      7 N         141.3857  145.8486  163.0989 N.3     1  UNL1       -0.2934
      8 H         141.2453  146.2031  164.0450 H       1  UNL1        0.1236
      9 C         140.0362  145.8130  162.4450 C.3     1  UNL1        0.1152
     10 O         138.1706  139.7498  157.9166 O.2     1  UNL1       -0.2707
     11 C         138.0862  140.4615  159.2343 C.2     1  UNL1        0.2718
     12 C         137.2957  139.8638  160.3602 C.3     1  UNL1        0.2898
     13 O         137.2114  140.5755  161.6780 O.3     1  UNL1       -0.4628
     14 C         137.9176  141.8849  161.8697 C.ar    1  UNL1        0.1708
     15 C         137.8332  142.5966  163.1875 C.ar    1  UNL1        0.0411
     16 C         138.5394  143.9059  163.3792 C.ar    1  UNL1        0.0193
     17 C         139.3300  144.5037  162.2532 C.ar    1  UNL1        0.0765
     18 N         139.4143  143.7920  160.9355 N.ar    1  UNL1       -0.2304
     19 C         138.7081  142.4826  160.7438 C.ar    1  UNL1        0.1682
     20 N         138.7924  141.7709  159.4261 N.am    1  UNL1       -0.2639
     21 H         139.3113  142.1632  158.6871 H       1  UNL1        0.1565
     22 C         144.6118  140.8143  163.5968 C.3     1  UNL1        0.0970
     23 C         143.9597  139.5496  164.0713 C.3     1  UNL1        0.1264
     24 N         142.6951  139.0689  163.4232 N.ar    1  UNL1       -0.2926
     25 C         142.7409  138.4479  162.0586 C.ar    1  UNL1        0.2611
     26 O         144.0512  138.3077  161.3420 O.2     1  UNL1       -0.2670
     27 C         141.4764  137.9673  161.4105 C.ar    1  UNL1        0.0623
     28 C         140.1661  138.1076  162.1271 C.ar    1  UNL1        0.0255
     29 C         140.1204  138.7285  163.4918 C.ar    1  UNL1        0.0975
     30 N         138.8101  138.8688  164.2084 N.ar    1  UNL1       -0.2392
     31 C         138.7644  139.4898  165.5731 C.ar    1  UNL1        0.1357
     32 C         140.0288  139.9705  166.2211 C.ar    1  UNL1        0.1590
     33 C         141.3392  139.8302  165.5045 C.ar    1  UNL1        0.0573
     34 C         141.3849  139.2092  164.1399 C.ar    1  UNL1        0.0832
     35 O         139.9831  140.5914  167.5858 O.3     1  UNL1       -0.4749
     36 C         141.2579  140.8768  168.3231 C.3     1  UNL1        0.1979
     37 C         141.9873  142.1873  168.3484 C.3     1  UNL1        0.0782
     38 C         143.2073  142.0222  169.2054 C.3     1  UNL1        0.1461
     39 O         143.2318  140.6097  169.7097 O.3     1  UNL1       -0.3498
     40 C         142.0271  139.9018  169.1644 C.3     1  UNL1        0.1855
@<TRIPOS>BOND
     1    10    11    2
     2    11    12    1
     3    12    13    1
     4    13    14    1
     5    14    15   ar
     6    15    16   ar
     7    16    17   ar
     8    17     9    1
     9     9     7    1
    10     7     1    1
    11     1     2    1
    12     2     3    1
    13     3     4    1
    14     4    22    1
    15    22    23    1
    16    23    24    1
    17    24    25   ar
    18    25    26    2
    19    25    27   ar
    20    27    28   ar
    21    28    29   ar
    22    29    30   ar
    23    30    31   ar
    24    31    32   ar
    25    32    35    1
    26    36    35    1
    27    36    37    1
    28    37    38    1
    29    38    39    1
    30    39    40    1
    31    32    33   ar
    32    33    34   ar
    33     4     5    1
    34     5     6    1
    35    17    18   ar
    36    18    19   ar
    37    19    20    1
    38    20    11   am
    39    19    14   ar
    40     6     1    1
    41    34    24   ar
    42    34    29   ar
    43    40    36    1
    44     7     8    1
    45    20    21    1
@<TRIPOS>MOLECULE
*****
 40 45 0 0 0
SMALL
GASTEIGER

@<TRIPOS>ATOM
      1 C         139.9816  144.2086  164.8000 C.3     1  UNL1        0.0570
      2 C         139.4254  143.8700  166.1512 C.3     1  UNL1        0.0331
      3 C         140.1928  142.9707  167.0744 C.3     1  UNL1        0.0735
      4 N         141.5166  142.4099  166.6463 N.3     1  UNL1       -0.2710
      5 C         142.0728  142.7485  165.2950 C.3     1  UNL1        0.0735
      6 C         141.3054  143.6478  164.3719 C.3     1  UNL1        0.0331
      7 N         139.2142  145.1079  163.8768 N.3     1  UNL1       -0.2934
      8 H         138.8735  145.8868  164.4404 H       1  UNL1        0.1236
      9 C         138.0353  144.5741  163.1182 C.3     1  UNL1        0.1152
     10 O         140.3515  140.4346  156.9336 O.2     1  UNL1       -0.2707
     11 C         139.6826  140.5030  158.2745 C.2     1  UNL1        0.2718
     12 C         139.1169  139.2599  158.8947 C.3     1  UNL1        0.2898
     13 O         138.4480  139.3283  160.2355 O.3     1  UNL1       -0.4628
     14 C         138.3449  140.6397  160.9562 C.ar    1  UNL1        0.1708
     15 C         137.6760  140.7081  162.2971 C.ar    1  UNL1        0.0411
     16 C         137.5728  142.0195  163.0177 C.ar    1  UNL1        0.0193
     17 C         138.1385  143.2627  162.3976 C.ar    1  UNL1        0.0765
     18 N         138.8074  143.1943  161.0567 N.ar    1  UNL1       -0.2304
     19 C         138.9105  141.8828  160.3360 C.ar    1  UNL1        0.1682
     20 N         139.5794  141.8144  158.9951 N.am    1  UNL1       -0.2639
     21 H         139.9507  142.6303  158.5881 H       1  UNL1        0.1565
     22 C         142.2840  141.5106  167.5695 C.3     1  UNL1        0.0970
     23 C         141.8359  140.0949  167.7814 C.3     1  UNL1        0.1264
     24 N         140.6387  139.5691  167.0463 N.ar    1  UNL1       -0.2926
     25 C         139.2949  139.5577  167.7126 C.ar    1  UNL1        0.2611
     26 O         139.1482  140.0722  169.1140 O.2     1  UNL1       -0.2670
     27 C         138.0977  139.0319  166.9775 C.ar    1  UNL1        0.0623
     28 C         138.2444  138.5175  165.5761 C.ar    1  UNL1        0.0255
     29 C         139.5883  138.5289  164.9098 C.ar    1  UNL1        0.0975
     30 N         139.7350  138.0145  163.5084 N.ar    1  UNL1       -0.2392
     31 C         141.0789  138.0259  162.8422 C.ar    1  UNL1        0.1357
     32 C         142.2760  138.5517  163.5772 C.ar    1  UNL1        0.1590
     33 C         142.1293  139.0661  164.9787 C.ar    1  UNL1        0.0573
     34 C         140.7854  139.0547  165.6449 C.ar    1  UNL1        0.0832
     35 O         143.6198  138.5631  162.9110 O.3     1  UNL1       -0.4749
     36 C         144.4204  139.8306  162.8589 C.3     1  UNL1        0.1979
     37 C         145.2507  140.3954  163.9732 C.3     1  UNL1        0.0782
     38 C         145.8747  141.6696  163.4865 C.3     1  UNL1        0.1461
     39 O         145.4300  141.8924  162.0713 O.3     1  UNL1       -0.3498
     40 C         144.5312  140.7558  161.6835 C.3     1  UNL1        0.1855
@<TRIPOS>BOND
     1    10    11    2
     2    11    12    1
     3    12    13    1
     4    13    14    1
     5    14    15   ar
     6    15    16   ar
     7    16    17   ar
     8    17     9    1
     9     9     7    1
    10     7     1    1
    11     1     2    1
    12     2     3    1
    13     3     4    1
    14     4    22    1
    15    22    23    1
    16    23    24    1
    17    24    25   ar
    18    25    26    2
    19    25    27   ar
    20    27    28   ar
    21    28    29   ar
    22    29    30   ar
    23    30    31   ar
    24    31    32   ar
    25    32    35    1
    26    36    35    1
    27    36    37    1
    28    37    38    1
    29    38    39    1
    30    39    40    1
    31    32    33   ar
    32    33    34   ar
    33     4     5    1
    34     5     6    1
    35    17    18   ar
    36    18    19   ar
    37    19    20    1
    38    20    11   am
    39    19    14   ar
    40     6     1    1
    41    34    24   ar
    42    34    29   ar
    43    40    36    1
    44     7     8    1
    45    20    21    1
@<TRIPOS>MOLECULE
*****
 40 45 0 0 0
SMALL
GASTEIGER

@<TRIPOS>ATOM
      1 C         137.8424  140.1336  161.9177 C.3     1  UNL1        0.0570
      2 C         138.1702  141.1218  160.8379 C.3     1  UNL1        0.0331
      3 C         138.2629  142.5835  161.1619 C.3     1  UNL1        0.0735
      4 N         138.0278  143.0569  162.5657 N.3     1  UNL1       -0.2710
      5 C         137.7000  142.0686  163.6455 C.3     1  UNL1        0.0735
      6 C         137.6073  140.6070  163.3215 C.3     1  UNL1        0.0331
      7 N         137.7497  138.6720  161.5936 N.3     1  UNL1       -0.2934
      8 H         137.4093  138.2050  162.4342 H       1  UNL1        0.1236
      9 C         138.9707  137.9238  161.1470 C.3     1  UNL1        0.1152
     10 O         143.8026  138.1835  167.2572 O.2     1  UNL1       -0.2707
     11 C         143.5327  138.4334  165.8030 C.2     1  UNL1        0.2718
     12 C         144.6033  139.0198  164.9314 C.3     1  UNL1        0.2898
     13 O         144.3334  139.2697  163.4772 O.3     1  UNL1       -0.4628
     14 C         142.9927  138.9333  162.8946 C.ar    1  UNL1        0.1708
     15 C         142.7227  139.1832  161.4404 C.ar    1  UNL1        0.0411
     16 C         141.3821  138.8467  160.8579 C.ar    1  UNL1        0.0193
     17 C         140.3113  138.2603  161.7295 C.ar    1  UNL1        0.0765
     18 N         140.5813  138.0104  163.1837 N.ar    1  UNL1       -0.2304
     19 C         141.9221  138.3469  163.7663 C.ar    1  UNL1        0.1682
     20 N         142.1920  138.0970  165.2204 N.am    1  UNL1       -0.2639
     21 H         141.4893  137.7121  165.7925 H       1  UNL1        0.1565
     22 C         138.1205  144.5185  162.8898 C.3     1  UNL1        0.0970
     23 C         139.4599  145.1505  163.1275 C.3     1  UNL1        0.1264
     24 N         140.7074  144.3232  163.0305 N.ar    1  UNL1       -0.2926
     25 C         141.4764  144.2737  161.7435 C.ar    1  UNL1        0.2611
     26 O         140.9978  145.0516  160.5535 O.2     1  UNL1       -0.2670
     27 C         142.7238  143.4465  161.6464 C.ar    1  UNL1        0.0623
     28 C         143.2024  142.6686  162.8364 C.ar    1  UNL1        0.0255
     29 C         142.4335  142.7180  164.1234 C.ar    1  UNL1        0.0975
     30 N         142.9120  141.9402  165.3133 N.ar    1  UNL1       -0.2392
     31 C         142.1431  141.9897  166.6003 C.ar    1  UNL1        0.1357
     32 C         140.8956  142.8169  166.6973 C.ar    1  UNL1        0.1590
     33 C         140.4170  143.5948  165.5074 C.ar    1  UNL1        0.0573
     34 C         141.1860  143.5453  164.2204 C.ar    1  UNL1        0.0832
     35 O         140.1267  142.8664  167.9843 O.3     1  UNL1       -0.4749
     36 C         140.2606  141.7535  168.9812 C.3     1  UNL1        0.1979
     37 C         140.9550  141.8373  170.3082 C.3     1  UNL1        0.0782
     38 C         140.8472  140.4972  170.9732 C.3     1  UNL1        0.1461
     39 O         140.0861  139.5850  170.0572 O.3     1  UNL1       -0.3498
     40 C         139.7236  140.3615  168.8261 C.3     1  UNL1        0.1855
@<TRIPOS>BOND
     1    10    11    2
     2    11    12    1
     3    12    13    1
     4    13    14    1
     5    14    15   ar
     6    15    16   ar
     7    16    17   ar
     8    17     9    1
     9     9     7    1
    10     7     1    1
    11     1     2    1
    12     2     3    1
    13     3     4    1
    14     4    22    1
    15    22    23    1
    16    23    24    1
    17    24    25   ar
    18    25    26    2
    19    25    27   ar
    20    27    28   ar
    21    28    29   ar
    22    29    30   ar
    23    30    31   ar
    24    31    32   ar
    25    32    35    1
    26    36    35    1
    27    36    37    1
    28    37    38    1
    29    38    39    1
    30    39    40    1
    31    32    33   ar
    32    33    34   ar
    33     4     5    1
    34     5     6    1
    35    17    18   ar
    36    18    19   ar
    37    19    20    1
    38    20    11   am
    39    19    14   ar
    40     6     1    1
    41    34    24   ar
    42    34    29   ar
    43    40    36    1
    44     7     8    1
    45    20    21    1
@<TRIPOS>MOLECULE
*****
 40 45 0 0 0
SMALL
GASTEIGER

@<TRIPOS>ATOM
      1 C         139.8897  138.1463  162.3498 C.3     1  UNL1        0.0570
      2 C         140.1873  138.0495  163.8168 C.3     1  UNL1        0.0331
      3 C         141.5744  138.3196  164.3200 C.3     1  UNL1        0.0735
      4 N         142.6638  138.6863  163.3563 N.3     1  UNL1       -0.2710
      5 C         142.3660  138.7831  161.8893 C.3     1  UNL1        0.0735
      6 C         140.9790  138.5131  161.3861 C.3     1  UNL1        0.0331
      7 N         138.5027  137.8763  161.8466 N.3     1  UNL1       -0.2934
      8 H         138.5727  137.0942  161.1956 H       1  UNL1        0.1236
      9 C         137.7360  138.9573  161.1439 C.3     1  UNL1        0.1152
     10 O         141.4817  145.5732  159.4264 O.2     1  UNL1       -0.2707
     11 C         140.5266  144.8089  160.2945 C.2     1  UNL1        0.2718
     12 C         139.8650  145.4856  161.4582 C.3     1  UNL1        0.2898
     13 O         138.9099  144.7213  162.3263 O.3     1  UNL1       -0.4628
     14 C         138.6164  143.2803  162.0308 C.ar    1  UNL1        0.1708
     15 C         137.6613  142.5160  162.8989 C.ar    1  UNL1        0.0411
     16 C         137.3679  141.0751  162.6033 C.ar    1  UNL1        0.0193
     17 C         138.0295  140.3983  161.4395 C.ar    1  UNL1        0.0765
     18 N         138.9846  141.1626  160.5714 N.ar    1  UNL1       -0.2304
     19 C         139.2781  142.6036  160.8670 C.ar    1  UNL1        0.1682
     20 N         140.2332  143.3679  159.9989 N.am    1  UNL1       -0.2639
     21 H         140.6674  142.9238  159.2351 H       1  UNL1        0.1565
     22 C         144.0508  138.9564  163.8595 C.3     1  UNL1        0.0970
     23 C         144.3241  140.1777  164.6862 C.3     1  UNL1        0.1264
     24 N         143.8447  141.5209  164.2211 N.ar    1  UNL1       -0.2926
     25 C         144.6372  142.2898  163.2058 C.ar    1  UNL1        0.2611
     26 O         145.9090  141.7155  162.6555 O.2     1  UNL1       -0.2670
     27 C         144.1579  143.6329  162.7408 C.ar    1  UNL1        0.0623
     28 C         142.8860  144.2072  163.2911 C.ar    1  UNL1        0.0255
     29 C         142.0936  143.4383  164.3064 C.ar    1  UNL1        0.0975
     30 N         140.8219  144.0125  164.8567 N.ar    1  UNL1       -0.2392
     31 C         140.0294  143.2437  165.8720 C.ar    1  UNL1        0.1357
     32 C         140.5087  141.9006  166.3370 C.ar    1  UNL1        0.1590
     33 C         141.7805  141.3263  165.7867 C.ar    1  UNL1        0.0573
     34 C         142.5730  142.0951  164.7714 C.ar    1  UNL1        0.0832
     35 O         139.7163  141.1317  167.3524 O.3     1  UNL1       -0.4749
     36 C         139.9991  141.3084  168.8149 C.3     1  UNL1        0.1979
     37 C         140.5102  142.5575  169.4695 C.3     1  UNL1        0.0782
     38 C         140.6474  142.2882  170.9387 C.3     1  UNL1        0.1461
     39 O         140.2212  140.8725  171.1921 O.3     1  UNL1       -0.3498
     40 C         139.8205  140.2670  169.8796 C.3     1  UNL1        0.1855
@<TRIPOS>BOND
     1    10    11    2
     2    11    12    1
     3    12    13    1
     4    13    14    1
     5    14    15   ar
     6    15    16   ar
     7    16    17   ar
     8    17     9    1
     9     9     7    1
    10     7     1    1
    11     1     2    1
    12     2     3    1
    13     3     4    1
    14     4    22    1
    15    22    23    1
    16    23    24    1
    17    24    25   ar
    18    25    26    2
    19    25    27   ar
    20    27    28   ar
    21    28    29   ar
    22    29    30   ar
    23    30    31   ar
    24    31    32   ar
    25    32    35    1
    26    36    35    1
    27    36    37    1
    28    37    38    1
    29    38    39    1
    30    39    40    1
    31    32    33   ar
    32    33    34   ar
    33     4     5    1
    34     5     6    1
    35    17    18   ar
    36    18    19   ar
    37    19    20    1
    38    20    11   am
    39    19    14   ar
    40     6     1    1
    41    34    24   ar
    42    34    29   ar
    43    40    36    1
    44     7     8    1
    45    20    21    1
