@<TRIPOS>MOLECULE
*****
 33 36 0 0 0
SMALL
GASTEIGER

@<TRIPOS>ATOM
      1 N         144.8598  139.8804  163.0960 N.pl3   1  UNL1       -0.2825
      2 H         145.8002  139.6052  163.1917 H       1  UNL1        0.1551
      3 C         142.3482  140.9545  165.9749 C.ar    1  UNL1        0.1030
      4 C         142.8860  142.3090  166.3296 C.ar    1  UNL1        0.0414
      5 C         144.0818  142.8540  165.6064 C.ar    1  UNL1        0.1034
      6 N         144.7397  142.0445  164.5285 N.ar    1  UNL1       -0.2120
      7 C         144.2019  140.6900  164.1738 C.ar    1  UNL1        0.2207
      8 N         143.0061  140.1449  164.8970 N.ar    1  UNL1       -0.2120
      9 C         137.7237  138.6119  166.9788 C.3     1  UNL1        0.0718
     10 C         139.0267  139.3327  167.1596 C.ar    1  UNL1        0.1208
     11 N         139.5977  139.8086  168.4625 N.ar    1  UNL1       -0.2293
     12 C         140.9114  140.4741  168.1772 C.ar    1  UNL1        0.1188
     13 C         141.1523  140.4094  166.6981 C.ar    1  UNL1        0.0981
     14 N         139.9875  139.7040  166.0692 N.ar    1  UNL1       -0.3155
     15 C         139.8140  139.4197  164.6066 C.3     1  UNL1        0.0868
     16 C         139.3268  140.4986  163.6855 C.3     1  UNL1        0.0245
     17 C         140.1277  138.0564  164.0652 C.3     1  UNL1        0.0245
     18 C         144.0849  139.4903  161.8723 C.ar    1  UNL1        0.0505
     19 C         143.7103  138.0552  161.6477 C.ar    1  UNL1        0.0159
     20 C         142.9355  137.6650  160.4241 C.ar    1  UNL1        0.0158
     21 C         142.5352  138.7099  159.4250 C.ar    1  UNL1        0.0480
     22 C         142.9098  140.1448  159.6496 C.ar    1  UNL1        0.0158
     23 C         143.6847  140.5351  160.8733 C.ar    1  UNL1        0.0159
     24 N         141.7603  138.3196  158.2013 N.pl3   1  UNL1       -0.3045
     25 C         142.3397  137.3354  157.2289 C.3     1  UNL1        0.1099
     26 C         141.5648  136.9452  156.0053 C.3     1  UNL1        0.1168
     27 N         140.2106  137.5392  155.7541 N.3     1  UNL1       -0.1559
     28 C         139.6312  138.5235  156.7265 C.3     1  UNL1        0.1168
     29 C         140.4061  138.9137  157.9501 C.3     1  UNL1        0.1099
     30 S         139.4357  137.1490  154.5304 S.O2    1  UNL1        0.0458
     31 C         138.6608  136.7588  153.3068 C.3     1  UNL1        0.1960
     32 O         138.1728  137.1208  155.3392 O.2     1  UNL1       -0.1572
     33 O         140.6986  137.1772  153.7216 O.2     1  UNL1       -0.1572
@<TRIPOS>BOND
     1     9    10    1
     2    10    11   ar
     3    11    12   ar
     4    12    13   ar
     5    13     3    1
     6     3     4   ar
     7     4     5   ar
     8     5     6   ar
     9     6     7   ar
    10     7     1    1
    11     1    18    1
    12    18    19   ar
    13    19    20   ar
    14    20    21   ar
    15    21    24    1
    16    24    25    1
    17    25    26    1
    18    26    27    1
    19    27    30    1
    20    30    31    1
    21    30    32    2
    22    30    33    2
    23    27    28    1
    24    28    29    1
    25    21    22   ar
    26    22    23   ar
    27     7     8   ar
    28    13    14   ar
    29    14    15    1
    30    15    16    1
    31    15    17    1
    32    14    10   ar
    33     8     3   ar
    34    23    18   ar
    35    29    24    1
    36     1     2    1
@<TRIPOS>MOLECULE
*****
 33 36 0 0 0
SMALL
GASTEIGER

@<TRIPOS>ATOM
      1 N         138.0781  143.0842  161.1839 N.pl3   1  UNL1       -0.2825
      2 H         137.3975  143.6593  160.7652 H       1  UNL1        0.1551
      3 C         140.0515  142.8011  164.6154 C.ar    1  UNL1        0.1030
      4 C         139.2998  143.7893  165.4571 C.ar    1  UNL1        0.0414
      5 C         138.1409  144.5424  164.8744 C.ar    1  UNL1        0.1034
      6 N         137.7336  144.3073  163.4500 N.ar    1  UNL1       -0.2120
      7 C         138.4853  143.3192  162.6083 C.ar    1  UNL1        0.2207
      8 N         139.6443  142.5661  163.1910 N.ar    1  UNL1       -0.2120
      9 C         142.9473  139.0216  166.8981 C.3     1  UNL1        0.0718
     10 C         142.5416  140.3107  166.2473 C.ar    1  UNL1        0.1208
     11 N         143.4467  141.4674  165.9422 N.ar    1  UNL1       -0.2293
     12 C         142.6240  142.5411  165.2937 C.ar    1  UNL1        0.1188
     13 C         141.2106  142.0480  165.1981 C.ar    1  UNL1        0.0981
     14 N         141.1597  140.6696  165.7874 N.ar    1  UNL1       -0.3155
     15 C         139.9409  139.8022  165.8976 C.3     1  UNL1        0.0868
     16 C         139.4798  139.0027  164.7152 C.3     1  UNL1        0.0245
     17 C         139.1830  139.7344  167.1904 C.3     1  UNL1        0.0245
     18 C         138.7077  141.9729  160.3974 C.ar    1  UNL1        0.0505
     19 C         139.8947  142.2516  159.5235 C.ar    1  UNL1        0.0159
     20 C         140.5243  141.1404  158.7370 C.ar    1  UNL1        0.0158
     21 C         139.9672  139.7504  158.8244 C.ar    1  UNL1        0.0480
     22 C         138.7803  139.4717  159.6982 C.ar    1  UNL1        0.0158
     23 C         138.1506  140.5830  160.4848 C.ar    1  UNL1        0.0159
     24 N         140.5969  138.6392  158.0378 N.pl3   1  UNL1       -0.3045
     25 C         139.8271  137.9682  156.9392 C.3     1  UNL1        0.1099
     26 C         140.4568  136.8570  156.1527 C.3     1  UNL1        0.1168
     27 N         141.8564  136.4168  156.4649 N.3     1  UNL1       -0.1559
     28 C         142.6262  137.0878  157.5635 C.3     1  UNL1        0.1168
     29 C         141.9965  138.1990  158.3500 C.3     1  UNL1        0.1099
     30 S         142.4862  135.3055  155.6783 S.O2    1  UNL1        0.0458
     31 C         143.1159  134.1943  154.8918 C.3     1  UNL1        0.1960
     32 O         143.8469  135.7932  156.0789 O.2     1  UNL1       -0.1572
     33 O         141.1254  134.8178  155.2777 O.2     1  UNL1       -0.1572
@<TRIPOS>BOND
     1     9    10    1
     2    10    11   ar
     3    11    12   ar
     4    12    13   ar
     5    13     3    1
     6     3     4   ar
     7     4     5   ar
     8     5     6   ar
     9     6     7   ar
    10     7     1    1
    11     1    18    1
    12    18    19   ar
    13    19    20   ar
    14    20    21   ar
    15    21    24    1
    16    24    25    1
    17    25    26    1
    18    26    27    1
    19    27    30    1
    20    30    31    1
    21    30    32    2
    22    30    33    2
    23    27    28    1
    24    28    29    1
    25    21    22   ar
    26    22    23   ar
    27     7     8   ar
    28    13    14   ar
    29    14    15    1
    30    15    16    1
    31    15    17    1
    32    14    10   ar
    33     8     3   ar
    34    23    18   ar
    35    29    24    1
    36     1     2    1
@<TRIPOS>MOLECULE
*****
 33 36 0 0 0
SMALL
GASTEIGER

@<TRIPOS>ATOM
      1 N         144.0544  141.6994  160.1844 N.pl3   1  UNL1       -0.2825
      2 H         144.2209  142.5459  159.7100 H       1  UNL1        0.1551
      3 C         143.0985  141.4670  164.0291 C.ar    1  UNL1        0.1030
      4 C         144.4574  141.5126  164.6624 C.ar    1  UNL1        0.0414
      5 C         145.6821  141.6205  163.8030 C.ar    1  UNL1        0.1034
      6 N         145.5477  141.6828  162.3103 N.ar    1  UNL1       -0.2120
      7 C         144.1887  141.6372  161.6771 C.ar    1  UNL1        0.2207
      8 N         142.9641  141.5293  162.5365 N.ar    1  UNL1       -0.2120
      9 C         139.2490  139.5012  167.0620 C.3     1  UNL1        0.0718
     10 C         140.1044  140.4556  166.2826 C.ar    1  UNL1        0.1208
     11 N         139.8739  141.9309  166.1394 N.ar    1  UNL1       -0.2293
     12 C         140.9675  142.4893  165.2778 C.ar    1  UNL1        0.1188
     13 C         141.8737  141.3591  164.8886 C.ar    1  UNL1        0.0981
     14 N         141.3403  140.1023  165.5095 N.ar    1  UNL1       -0.3155
     15 C         141.9379  138.7325  165.3802 C.3     1  UNL1        0.0868
     16 C         141.2758  137.7043  164.5118 C.3     1  UNL1        0.0245
     17 C         143.1977  138.3911  166.1194 C.3     1  UNL1        0.0245
     18 C         143.6663  140.4720  159.4144 C.ar    1  UNL1        0.0505
     19 C         143.3267  139.2056  160.1432 C.ar    1  UNL1        0.0159
     20 C         142.9387  137.9782  159.3732 C.ar    1  UNL1        0.0158
     21 C         142.8902  138.0171  157.8745 C.ar    1  UNL1        0.0480
     22 C         143.2298  139.2834  157.1458 C.ar    1  UNL1        0.0158
     23 C         143.6179  140.5109  157.9157 C.ar    1  UNL1        0.0159
     24 N         142.5021  136.7897  157.1046 N.pl3   1  UNL1       -0.3045
     25 C         143.2122  135.4922  157.3541 C.3     1  UNL1        0.1099
     26 C         142.8241  134.2648  156.5841 C.3     1  UNL1        0.1168
     27 N         141.7260  134.3349  155.5647 N.3     1  UNL1       -0.1559
     28 C         141.0159  135.6324  155.3152 C.3     1  UNL1        0.1168
     29 C         141.4040  136.8598  156.0852 C.3     1  UNL1        0.1099
     30 S         141.3379  133.1074  154.7948 S.O2    1  UNL1        0.0458
     31 C         140.9498  131.8799  154.0249 C.3     1  UNL1        0.1960
     32 O         141.6568  132.2576  155.9889 O.2     1  UNL1       -0.1572
     33 O         141.0190  133.9572  153.6006 O.2     1  UNL1       -0.1572
@<TRIPOS>BOND
     1     9    10    1
     2    10    11   ar
     3    11    12   ar
     4    12    13   ar
     5    13     3    1
     6     3     4   ar
     7     4     5   ar
     8     5     6   ar
     9     6     7   ar
    10     7     1    1
    11     1    18    1
    12    18    19   ar
    13    19    20   ar
    14    20    21   ar
    15    21    24    1
    16    24    25    1
    17    25    26    1
    18    26    27    1
    19    27    30    1
    20    30    31    1
    21    30    32    2
    22    30    33    2
    23    27    28    1
    24    28    29    1
    25    21    22   ar
    26    22    23   ar
    27     7     8   ar
    28    13    14   ar
    29    14    15    1
    30    15    16    1
    31    15    17    1
    32    14    10   ar
    33     8     3   ar
    34    23    18   ar
    35    29    24    1
    36     1     2    1
@<TRIPOS>MOLECULE
*****
 33 36 0 0 0
SMALL
GASTEIGER

@<TRIPOS>ATOM
      1 N         142.1023  137.7201  164.4547 N.pl3   1  UNL1       -0.2825
      2 H         142.6509  136.9935  164.8292 H       1  UNL1        0.1551
      3 C         139.6756  139.5552  167.0029 C.ar    1  UNL1        0.1030
      4 C         138.3453  139.0192  166.5635 C.ar    1  UNL1        0.0414
      5 C         138.2674  138.0502  165.4212 C.ar    1  UNL1        0.1034
      6 N         139.5197  137.6172  164.7183 N.ar    1  UNL1       -0.2120
      7 C         140.8500  138.1532  165.1576 C.ar    1  UNL1        0.2207
      8 N         140.9279  139.1222  166.2999 N.ar    1  UNL1       -0.2120
      9 C         140.7022  143.8720  169.8651 C.3     1  UNL1        0.0718
     10 C         140.2255  142.5085  169.4608 C.ar    1  UNL1        0.1208
     11 N         139.5216  141.5224  170.3454 N.ar    1  UNL1       -0.2293
     12 C         139.2300  140.2961  169.5323 C.ar    1  UNL1        0.1188
     13 C         139.7536  140.5243  168.1452 C.ar    1  UNL1        0.0981
     14 N         140.3688  141.8916  168.1011 N.ar    1  UNL1       -0.3155
     15 C         141.0141  142.5300  166.9069 C.3     1  UNL1        0.0868
     16 C         142.4989  142.4357  166.7167 C.3     1  UNL1        0.0245
     17 C         140.1743  143.2628  165.9029 C.3     1  UNL1        0.0245
     18 C         142.5189  138.3942  163.1811 C.ar    1  UNL1        0.0505
     19 C         141.7797  138.1121  161.9066 C.ar    1  UNL1        0.0159
     20 C         142.1962  138.7862  160.6331 C.ar    1  UNL1        0.0158
     21 C         143.3519  139.7425  160.6339 C.ar    1  UNL1        0.0480
     22 C         144.0911  140.0246  161.9082 C.ar    1  UNL1        0.0158
     23 C         143.6745  139.3505  163.1819 C.ar    1  UNL1        0.0159
     24 N         143.7685  140.4166  159.3602 N.pl3   1  UNL1       -0.3045
     25 C         144.3177  141.8119  159.3950 C.3     1  UNL1        0.1099
     26 C         144.7342  142.4860  158.1214 C.3     1  UNL1        0.1168
     27 N         144.6014  141.7646  156.8129 N.3     1  UNL1       -0.1559
     28 C         144.0522  140.3693  156.7781 C.3     1  UNL1        0.1168
     29 C         143.6357  139.6952  158.0517 C.3     1  UNL1        0.1099
     30 S         145.0180  142.4387  155.5393 S.O2    1  UNL1        0.0458
     31 C         145.4344  143.1128  154.2657 C.3     1  UNL1        0.1960
     32 O         143.6085  142.9051  155.3252 O.2     1  UNL1       -0.1572
     33 O         146.4274  141.9724  155.7533 O.2     1  UNL1       -0.1572
@<TRIPOS>BOND
     1     9    10    1
     2    10    11   ar
     3    11    12   ar
     4    12    13   ar
     5    13     3    1
     6     3     4   ar
     7     4     5   ar
     8     5     6   ar
     9     6     7   ar
    10     7     1    1
    11     1    18    1
    12    18    19   ar
    13    19    20   ar
    14    20    21   ar
    15    21    24    1
    16    24    25    1
    17    25    26    1
    18    26    27    1
    19    27    30    1
    20    30    31    1
    21    30    32    2
    22    30    33    2
    23    27    28    1
    24    28    29    1
    25    21    22   ar
    26    22    23   ar
    27     7     8   ar
    28    13    14   ar
    29    14    15    1
    30    15    16    1
    31    15    17    1
    32    14    10   ar
    33     8     3   ar
    34    23    18   ar
    35    29    24    1
    36     1     2    1
@<TRIPOS>MOLECULE
*****
 33 36 0 0 0
SMALL
GASTEIGER

@<TRIPOS>ATOM
      1 N         138.4719  138.9353  165.7389 N.pl3   1  UNL1       -0.2825
      2 H         137.8416  138.3105  166.1651 H       1  UNL1        0.1551
      3 C         141.2938  141.5233  166.7824 C.ar    1  UNL1        0.1030
      4 C         141.1718  141.4884  168.2769 C.ar    1  UNL1        0.0414
      5 C         140.1499  140.6025  168.9255 C.ar    1  UNL1        0.1034
      6 N         139.2499  139.7515  168.0795 N.ar    1  UNL1       -0.2120
      7 C         139.3719  139.7863  166.5849 C.ar    1  UNL1        0.2207
      8 N         140.3938  140.6722  165.9363 N.ar    1  UNL1       -0.2120
      9 C         143.5966  144.9916  163.5344 C.3     1  UNL1        0.0718
     10 C         143.3743  144.0034  164.6408 C.ar    1  UNL1        0.1208
     11 N         144.4027  143.5416  165.6303 N.ar    1  UNL1       -0.2293
     12 C         143.7485  142.5563  166.5530 C.ar    1  UNL1        0.1188
     13 C         142.3158  142.4092  166.1337 C.ar    1  UNL1        0.0981
     14 N         142.0846  143.3036  164.9519 N.ar    1  UNL1       -0.3155
     15 C         140.7907  143.4691  164.2112 C.3     1  UNL1        0.0868
     16 C         139.7089  144.3406  164.7767 C.3     1  UNL1        0.0245
     17 C         140.5788  142.7629  162.9048 C.3     1  UNL1        0.0245
     18 C         138.5322  139.0361  164.2436 C.ar    1  UNL1        0.0505
     19 C         137.8938  140.1994  163.5440 C.ar    1  UNL1        0.0159
     20 C         137.9541  140.3003  162.0486 C.ar    1  UNL1        0.0158
     21 C         138.6527  139.2379  161.2528 C.ar    1  UNL1        0.0480
     22 C         139.2910  138.0746  161.9523 C.ar    1  UNL1        0.0158
     23 C         139.2307  137.9737  163.4477 C.ar    1  UNL1        0.0159
     24 N         138.7129  139.3388  159.7573 N.pl3   1  UNL1       -0.3045
     25 C         137.9130  140.3879  159.0436 C.3     1  UNL1        0.1099
     26 C         137.9733  140.4888  157.5482 C.3     1  UNL1        0.1168
     27 N         138.8335  139.5405  156.7666 N.3     1  UNL1       -0.1559
     28 C         139.6334  138.4914  157.4804 C.3     1  UNL1        0.1168
     29 C         139.5731  138.3905  158.9757 C.3     1  UNL1        0.1099
     30 S         138.8937  139.6414  155.2712 S.O2    1  UNL1        0.0458
     31 C         138.9540  139.7423  153.7758 C.3     1  UNL1        0.1960
     32 O         140.3119  140.1216  155.3608 O.2     1  UNL1       -0.1572
     33 O         137.4755  139.1612  155.1816 O.2     1  UNL1       -0.1572
@<TRIPOS>BOND
     1     9    10    1
     2    10    11   ar
     3    11    12   ar
     4    12    13   ar
     5    13     3    1
     6     3     4   ar
     7     4     5   ar
     8     5     6   ar
     9     6     7   ar
    10     7     1    1
    11     1    18    1
    12    18    19   ar
    13    19    20   ar
    14    20    21   ar
    15    21    24    1
    16    24    25    1
    17    25    26    1
    18    26    27    1
    19    27    30    1
    20    30    31    1
    21    30    32    2
    22    30    33    2
    23    27    28    1
    24    28    29    1
    25    21    22   ar
    26    22    23   ar
    27     7     8   ar
    28    13    14   ar
    29    14    15    1
    30    15    16    1
    31    15    17    1
    32    14    10   ar
    33     8     3   ar
    34    23    18   ar
    35    29    24    1
    36     1     2    1
@<TRIPOS>MOLECULE
*****
 33 36 0 0 0
SMALL
GASTEIGER

@<TRIPOS>ATOM
      1 N         144.3128  143.3668  166.4540 N.pl3   1  UNL1       -0.2825
      2 H         144.9848  143.9592  166.8624 H       1  UNL1        0.1551
      3 C         141.4618  140.8440  167.5750 C.ar    1  UNL1        0.1030
      4 C         141.6282  140.8722  169.0654 C.ar    1  UNL1        0.0414
      5 C         142.6895  141.7321  169.6854 C.ar    1  UNL1        0.1034
      6 N         143.5843  142.5636  168.8149 N.ar    1  UNL1       -0.2120
      7 C         143.4179  142.5353  167.3244 C.ar    1  UNL1        0.2207
      8 N         142.3567  141.6755  166.7045 N.ar    1  UNL1       -0.2120
      9 C         138.8715  137.7088  164.2071 C.3     1  UNL1        0.0718
     10 C         139.2099  138.5431  165.4069 C.ar    1  UNL1        0.1208
     11 N         138.3248  138.7788  166.5949 N.ar    1  UNL1       -0.2293
     12 C         139.0607  139.6694  167.5516 C.ar    1  UNL1        0.1188
     13 C         140.4005  139.9841  166.9550 C.ar    1  UNL1        0.0981
     14 N         140.4927  139.2879  165.6295 N.ar    1  UNL1       -0.3155
     15 C         141.6623  139.3294  164.6913 C.3     1  UNL1        0.0868
     16 C         142.8740  138.4890  164.9656 C.3     1  UNL1        0.0245
     17 C         141.6201  140.2114  163.4786 C.3     1  UNL1        0.0245
     18 C         144.1838  143.2959  164.9612 C.ar    1  UNL1        0.0505
     19 C         143.2658  144.2394  164.2421 C.ar    1  UNL1        0.0159
     20 C         143.1368  144.1685  162.7493 C.ar    1  UNL1        0.0158
     21 C         143.9258  143.1541  161.9757 C.ar    1  UNL1        0.0480
     22 C         144.8438  142.2107  162.6948 C.ar    1  UNL1        0.0158
     23 C         144.9728  142.2816  164.1876 C.ar    1  UNL1        0.0159
     24 N         143.7967  143.0833  160.4829 N.pl3   1  UNL1       -0.3045
     25 C         144.9045  142.4934  159.6615 C.3     1  UNL1        0.1099
     26 C         144.7755  142.4226  158.1688 C.3     1  UNL1        0.1168
     27 N         143.5385  142.9416  157.4974 N.3     1  UNL1       -0.1559
     28 C         142.4307  143.5314  158.3188 C.3     1  UNL1        0.1168
     29 C         142.5598  143.6023  159.8116 C.3     1  UNL1        0.1099
     30 S         143.4095  142.8707  156.0046 S.O2    1  UNL1        0.0458
     31 C         143.2804  142.7999  154.5119 C.3     1  UNL1        0.1960
     32 O         142.3328  143.9141  156.0482 O.2     1  UNL1       -0.1572
     33 O         144.4862  141.8273  155.9610 O.2     1  UNL1       -0.1572
@<TRIPOS>BOND
     1     9    10    1
     2    10    11   ar
     3    11    12   ar
     4    12    13   ar
     5    13     3    1
     6     3     4   ar
     7     4     5   ar
     8     5     6   ar
     9     6     7   ar
    10     7     1    1
    11     1    18    1
    12    18    19   ar
    13    19    20   ar
    14    20    21   ar
    15    21    24    1
    16    24    25    1
    17    25    26    1
    18    26    27    1
    19    27    30    1
    20    30    31    1
    21    30    32    2
    22    30    33    2
    23    27    28    1
    24    28    29    1
    25    21    22   ar
    26    22    23   ar
    27     7     8   ar
    28    13    14   ar
    29    14    15    1
    30    15    16    1
    31    15    17    1
    32    14    10   ar
    33     8     3   ar
    34    23    18   ar
    35    29    24    1
    36     1     2    1
@<TRIPOS>MOLECULE
*****
 33 36 0 0 0
SMALL
GASTEIGER

@<TRIPOS>ATOM
      1 N         138.1741  138.2321  166.1931 N.pl3   1  UNL1       -0.2825
      2 H         137.4021  137.6507  166.3810 H       1  UNL1        0.1551
      3 C         140.5448  140.7742  168.1081 C.ar    1  UNL1        0.1030
      4 C         139.8557  140.8578  169.4378 C.ar    1  UNL1        0.0414
      5 C         138.6060  140.0662  169.6859 C.ar    1  UNL1        0.1034
      6 N         138.0454  139.1910  168.6043 N.ar    1  UNL1       -0.2120
      7 C         138.7346  139.1073  167.2747 C.ar    1  UNL1        0.2207
      8 N         139.9843  139.8989  167.0266 N.ar    1  UNL1       -0.2120
      9 C         144.3580  143.5124  165.6908 C.3     1  UNL1        0.0718
     10 C         143.5472  142.8244  166.7488 C.ar    1  UNL1        0.1208
     11 N         143.8881  142.7435  168.2074 N.ar    1  UNL1       -0.2293
     12 C         142.8049  141.9657  168.8941 C.ar    1  UNL1        0.1188
     13 C         141.7946  141.5658  167.8599 C.ar    1  UNL1        0.0981
     14 N         142.2534  142.0966  166.5341 N.ar    1  UNL1       -0.3155
     15 C         141.5431  141.9289  165.2237 C.3     1  UNL1        0.0868
     16 C         142.0860  140.9857  164.1915 C.3     1  UNL1        0.0245
     17 C         140.2897  142.7047  164.9454 C.3     1  UNL1        0.0245
     18 C         138.7897  138.2426  164.8254 C.ar    1  UNL1        0.0505
     19 C         138.3029  139.2142  163.7912 C.ar    1  UNL1        0.0159
     20 C         138.9186  139.2247  162.4235 C.ar    1  UNL1        0.0158
     21 C         140.0209  138.2638  162.0897 C.ar    1  UNL1        0.0480
     22 C         140.5077  137.2923  163.1237 C.ar    1  UNL1        0.0158
     23 C         139.8920  137.2817  164.4916 C.ar    1  UNL1        0.0159
     24 N         140.6365  138.2744  160.7218 N.pl3   1  UNL1       -0.3045
     25 C         139.7692  138.4471  159.5103 C.3     1  UNL1        0.1099
     26 C         140.3848  138.4577  158.1426 C.3     1  UNL1        0.1168
     27 N         141.8678  138.2955  157.9863 N.3     1  UNL1       -0.1559
     28 C         142.7352  138.1227  159.1978 C.3     1  UNL1        0.1168
     29 C         142.1195  138.1122  160.5656 C.3     1  UNL1        0.1099
     30 S         142.4834  138.3061  156.6184 S.O2    1  UNL1        0.0458
     31 C         143.0990  138.3167  155.2507 C.3     1  UNL1        0.1960
     32 O         142.5464  139.8042  156.6584 O.2     1  UNL1       -0.1572
     33 O         142.4205  136.8080  156.5785 O.2     1  UNL1       -0.1572
@<TRIPOS>BOND
     1     9    10    1
     2    10    11   ar
     3    11    12   ar
     4    12    13   ar
     5    13     3    1
     6     3     4   ar
     7     4     5   ar
     8     5     6   ar
     9     6     7   ar
    10     7     1    1
    11     1    18    1
    12    18    19   ar
    13    19    20   ar
    14    20    21   ar
    15    21    24    1
    16    24    25    1
    17    25    26    1
    18    26    27    1
    19    27    30    1
    20    30    31    1
    21    30    32    2
    22    30    33    2
    23    27    28    1
    24    28    29    1
    25    21    22   ar
    26    22    23   ar
    27     7     8   ar
    28    13    14   ar
    29    14    15    1
    30    15    16    1
    31    15    17    1
    32    14    10   ar
    33     8     3   ar
    34    23    18   ar
    35    29    24    1
    36     1     2    1
@<TRIPOS>MOLECULE
*****
 33 36 0 0 0
SMALL
GASTEIGER

@<TRIPOS>ATOM
      1 N         139.3797  138.6364  160.9740 N.pl3   1  UNL1       -0.2825
      2 H         138.7418  137.9199  160.7526 H       1  UNL1        0.1551
      3 C         142.2998  139.3546  163.5638 C.ar    1  UNL1        0.1030
      4 C         142.2101  138.1380  164.4367 C.ar    1  UNL1        0.0414
      5 C         141.1770  137.0876  164.1553 C.ar    1  UNL1        0.1034
      6 N         140.2335  137.2537  163.0011 N.ar    1  UNL1       -0.2120
      7 C         140.3232  138.4703  162.1282 C.ar    1  UNL1        0.2207
      8 N         141.3563  139.5207  162.4096 N.ar    1  UNL1       -0.2120
      9 C         144.6839  143.6813  165.4283 C.3     1  UNL1        0.0718
     10 C         144.4288  142.3938  164.7021 C.ar    1  UNL1        0.1208
     11 N         145.4168  141.6492  163.8539 N.ar    1  UNL1       -0.2293
     12 C         144.7395  140.4201  163.3242 C.ar    1  UNL1        0.1188
     13 C         143.3329  140.4051  163.8451 C.ar    1  UNL1        0.0981
     14 N         143.1409  141.6249  164.6967 N.ar    1  UNL1       -0.3155
     15 C         141.8820  142.0084  165.4165 C.3     1  UNL1        0.0868
     16 C         140.7502  142.6413  164.6628 C.3     1  UNL1        0.0245
     17 C         141.7551  141.7590  166.8902 C.3     1  UNL1        0.0245
     18 C         139.4081  139.8941  160.1571 C.ar    1  UNL1        0.0505
     19 C         138.5056  141.0388  160.5110 C.ar    1  UNL1        0.0159
     20 C         138.5339  142.2965  159.6941 C.ar    1  UNL1        0.0158
     21 C         139.4648  142.4096  158.5233 C.ar    1  UNL1        0.0480
     22 C         140.3673  141.2650  158.1694 C.ar    1  UNL1        0.0158
     23 C         140.3389  140.0072  158.9863 C.ar    1  UNL1        0.0159
     24 N         139.4932  143.6674  157.7065 N.pl3   1  UNL1       -0.3045
     25 C         138.7891  143.7182  156.3830 C.3     1  UNL1        0.1099
     26 C         138.8175  144.9759  155.5662 C.3     1  UNL1        0.1168
     27 N         139.5499  146.1829  156.0729 N.3     1  UNL1       -0.1559
     28 C         140.2540  146.1321  157.3963 C.3     1  UNL1        0.1168
     29 C         140.2256  144.8744  158.2131 C.3     1  UNL1        0.1099
     30 S         139.5783  147.4407  155.2560 S.O2    1  UNL1        0.0458
     31 C         139.6066  148.6984  154.4392 C.3     1  UNL1        0.1960
     32 O         138.7809  148.1452  156.3132 O.2     1  UNL1       -0.1572
     33 O         140.3756  146.7361  154.1987 O.2     1  UNL1       -0.1572
@<TRIPOS>BOND
     1     9    10    1
     2    10    11   ar
     3    11    12   ar
     4    12    13   ar
     5    13     3    1
     6     3     4   ar
     7     4     5   ar
     8     5     6   ar
     9     6     7   ar
    10     7     1    1
    11     1    18    1
    12    18    19   ar
    13    19    20   ar
    14    20    21   ar
    15    21    24    1
    16    24    25    1
    17    25    26    1
    18    26    27    1
    19    27    30    1
    20    30    31    1
    21    30    32    2
    22    30    33    2
    23    27    28    1
    24    28    29    1
    25    21    22   ar
    26    22    23   ar
    27     7     8   ar
    28    13    14   ar
    29    14    15    1
    30    15    16    1
    31    15    17    1
    32    14    10   ar
    33     8     3   ar
    34    23    18   ar
    35    29    24    1
    36     1     2    1
@<TRIPOS>MOLECULE
*****
 33 36 0 0 0
SMALL
GASTEIGER

@<TRIPOS>ATOM
      1 N         144.8996  139.7664  163.2343 N.pl3   1  UNL1       -0.2825
      2 H         145.7968  139.4064  163.4204 H       1  UNL1        0.1551
      3 C         142.3977  141.1605  165.9815 C.ar    1  UNL1        0.1030
      4 C         142.9359  142.5468  166.1777 C.ar    1  UNL1        0.0414
      5 C         144.1286  143.0063  165.3927 C.ar    1  UNL1        0.1034
      6 N         144.7831  142.0795  164.4116 N.ar    1  UNL1       -0.2120
      7 C         144.2450  140.6932  164.2155 C.ar    1  UNL1        0.2207
      8 N         143.0523  140.2337  165.0004 N.ar    1  UNL1       -0.2120
      9 C         139.0130  140.3292  169.9481 C.3     1  UNL1        0.0718
     10 C         139.6492  140.3188  168.5897 C.ar    1  UNL1        0.1208
     11 N         139.0898  139.6686  167.3591 N.ar    1  UNL1       -0.2293
     12 C         140.0513  139.9048  166.2323 C.ar    1  UNL1        0.1188
     13 C         141.2049  140.7009  166.7665 C.ar    1  UNL1        0.0981
     14 N         140.9564  140.9568  168.2235 N.ar    1  UNL1       -0.3155
     15 C         141.8569  141.7172  169.1513 C.3     1  UNL1        0.0868
     16 C         143.1269  141.0903  169.6451 C.3     1  UNL1        0.0245
     17 C         141.4872  143.1047  169.5855 C.3     1  UNL1        0.0245
     18 C         144.1872  139.3882  161.9697 C.ar    1  UNL1        0.0505
     19 C         143.7877  137.9620  161.7317 C.ar    1  UNL1        0.0159
     20 C         143.0753  137.5837  160.4671 C.ar    1  UNL1        0.0158
     21 C         142.7623  138.6315  159.4404 C.ar    1  UNL1        0.0480
     22 C         143.1618  140.0576  159.6783 C.ar    1  UNL1        0.0158
     23 C         143.8742  140.4360  160.9430 C.ar    1  UNL1        0.0159
     24 N         142.0499  138.2532  158.1757 N.pl3   1  UNL1       -0.3045
     25 C         142.8348  137.8146  156.9752 C.3     1  UNL1        0.1099
     26 C         142.1224  137.4363  155.7106 C.3     1  UNL1        0.1168
     27 N         140.6250  137.4966  155.6465 N.3     1  UNL1       -0.1559
     28 C         139.8400  137.9352  156.8471 C.3     1  UNL1        0.1168
     29 C         140.5524  138.3135  158.1117 C.3     1  UNL1        0.1099
     30 S         139.9125  137.1182  154.3819 S.O2    1  UNL1        0.0458
     31 C         139.2001  136.7399  153.1172 C.3     1  UNL1        0.1960
     32 O         139.2374  138.4575  154.3616 O.2     1  UNL1       -0.1572
     33 O         140.5876  135.7789  154.4022 O.2     1  UNL1       -0.1572
@<TRIPOS>BOND
     1     9    10    1
     2    10    11   ar
     3    11    12   ar
     4    12    13   ar
     5    13     3    1
     6     3     4   ar
     7     4     5   ar
     8     5     6   ar
     9     6     7   ar
    10     7     1    1
    11     1    18    1
    12    18    19   ar
    13    19    20   ar
    14    20    21   ar
    15    21    24    1
    16    24    25    1
    17    25    26    1
    18    26    27    1
    19    27    30    1
    20    30    31    1
    21    30    32    2
    22    30    33    2
    23    27    28    1
    24    28    29    1
    25    21    22   ar
    26    22    23   ar
    27     7     8   ar
    28    13    14   ar
    29    14    15    1
    30    15    16    1
    31    15    17    1
    32    14    10   ar
    33     8     3   ar
    34    23    18   ar
    35    29    24    1
    36     1     2    1
