@<TRIPOS>MOLECULE
*****
 39 42 0 0 0
SMALL
GASTEIGER

@<TRIPOS>ATOM
      1 C         141.6935  137.9857  162.6883 C.3     1  UNL1        0.0118
      2 C         140.4754  138.1531  161.8292 C.3     1  UNL1        0.0179
      3 C         140.6211  138.3193  160.3456 C.3     1  UNL1        0.0724
      4 N         141.9850  138.3180  159.7211 N.3     1  UNL1       -0.2689
      5 C         143.2031  138.1506  160.5802 C.3     1  UNL1        0.0724
      6 C         143.0574  137.9844  162.0638 C.3     1  UNL1        0.0179
      7 C         141.5479  137.8195  164.1720 C.3     1  UNL1        0.0851
      8 N         140.8421  140.0756  165.2499 N.am    1  UNL1       -0.3022
      9 C         140.5439  138.6421  164.9238 C.2     1  UNL1        0.2226
     10 O         139.2417  138.0313  165.3496 O.2     1  UNL1       -0.2751
     11 H         141.6967  140.4765  164.9704 H       1  UNL1        0.1497
     12 C         139.8381  140.8982  166.0017 C.3     1  UNL1        0.0950
     13 C         140.0468  141.1894  167.4583 C.2     1  UNL1        0.0083
     14 C         140.5572  142.5324  167.8891 C.2     1  UNL1       -0.0179
     15 C         140.7660  142.8235  169.3457 C.3     1  UNL1        0.1129
     16 C         140.4643  141.7716  170.3715 C.2     1  UNL1        0.2500
     17 O         140.6731  142.0627  171.8281 O.2     1  UNL1       -0.2726
     18 N         139.9539  140.4285  169.9407 N.am    1  UNL1       -0.1779
     19 C         139.7452  140.1374  168.4841 C.2     1  UNL1        0.0856
     20 C         138.6254  141.4297  165.2969 C.3     1  UNL1        0.0242
     21 C         138.7625  142.5516  164.3107 C.3     1  UNL1        0.0020
     22 C         138.6767  144.8940  165.4311 C.3     1  UNL1        0.0000
     23 C         139.4457  143.8248  164.7133 C.3     1  UNL1        0.0001
     24 C         142.1306  138.4842  158.2374 C.3     1  UNL1        0.1007
     25 C         142.0652  137.2852  157.3384 C.ar    1  UNL1        0.0129
     26 C         141.1068  137.0868  156.2017 C.ar    1  UNL1        0.0176
     27 C         141.3960  135.7531  155.5791 C.ar    1  UNL1        0.0799
     28 N         142.5331  135.1272  156.3310 N.ar    1  UNL1       -0.3038
     29 C         142.9467  136.0742  157.4183 C.ar    1  UNL1        0.0772
     30 C         143.1486  133.7894  156.0456 C.ar    1  UNL1        0.0640
     31 C         144.1553  133.2093  156.9942 C.ar    1  UNL1        0.0175
     32 C         144.7708  131.8715  156.7088 C.ar    1  UNL1        0.0053
     33 C         144.3794  131.1138  155.4749 C.ar    1  UNL1        0.0715
     34 C         143.3726  131.6938  154.5263 C.ar    1  UNL1        0.0053
     35 C         142.7572  133.0317  154.8117 C.ar    1  UNL1        0.0175
     36 C         144.9948  129.7760  155.1896 C.3     1  UNL1        0.4186
     37 F         145.6103  128.4381  154.9043 F       1  UNL1       -0.1659
     38 F         144.8941  130.0437  153.7171 F       1  UNL1       -0.1659
     39 F         145.0956  129.5082  156.6621 F       1  UNL1       -0.1659
@<TRIPOS>BOND
     1    22    23    1
     2    23    21    1
     3    21    20    1
     4    20    12    1
     5    12     8    1
     6     8     9   am
     7     9    10    2
     8     9     7    1
     9     7     1    1
    10     1     2    1
    11     2     3    1
    12     3     4    1
    13     4    24    1
    14    24    25    1
    15    25    26   ar
    16    26    27   ar
    17    27    28   ar
    18    28    30    1
    19    30    31   ar
    20    31    32   ar
    21    32    33   ar
    22    33    36    1
    23    36    37    1
    24    36    38    1
    25    36    39    1
    26    33    34   ar
    27    34    35   ar
    28    28    29   ar
    29     4     5    1
    30     5     6    1
    31    12    13    1
    32    13    14    2
    33    14    15    1
    34    15    16    1
    35    16    17    2
    36    16    18    1
    37    18    19    2
    38     6     1    1
    39    19    13    1
    40    29    25   ar
    41    35    30   ar
    42     8    11    1
@<TRIPOS>MOLECULE
*****
 39 42 0 0 0
SMALL
GASTEIGER

@<TRIPOS>ATOM
      1 C         142.0777  138.2873  163.2094 C.3     1  UNL1        0.0118
      2 C         140.8201  138.1851  162.3983 C.3     1  UNL1        0.0179
      3 C         140.8680  138.3827  160.9122 C.3     1  UNL1        0.0724
      4 N         142.1736  138.6824  160.2372 N.3     1  UNL1       -0.2689
      5 C         143.4312  138.7845  161.0483 C.3     1  UNL1        0.0724
      6 C         143.3833  138.5870  162.5344 C.3     1  UNL1        0.0179
      7 C         142.0298  138.0897  164.6957 C.3     1  UNL1        0.0851
      8 N         141.9347  140.4682  165.7369 N.am    1  UNL1       -0.3022
      9 C         142.6036  139.1315  165.6096 C.2     1  UNL1        0.2226
     10 O         143.8463  138.8368  166.3963 O.2     1  UNL1       -0.2751
     11 H         141.1191  140.6616  165.2206 H       1  UNL1        0.1497
     12 C         142.5085  141.5100  166.6509 C.3     1  UNL1        0.0950
     13 C         141.9808  141.6553  168.0474 C.2     1  UNL1        0.0083
     14 C         140.6661  142.3372  168.2852 C.2     1  UNL1       -0.0179
     15 C         140.1384  142.4825  169.6818 C.3     1  UNL1        0.1129
     16 C         140.9254  141.9460  170.8405 C.2     1  UNL1        0.2500
     17 O         140.3977  142.0914  172.2371 O.2     1  UNL1       -0.2726
     18 N         142.2401  141.2641  170.6027 N.am    1  UNL1       -0.1779
     19 C         142.7678  141.1188  169.2062 C.2     1  UNL1        0.0856
     20 C         143.6101  142.4064  166.1682 C.3     1  UNL1        0.0242
     21 C         143.9079  142.5057  164.7014 C.3     1  UNL1        0.0020
     22 C         145.3495  141.8319  162.6477 C.3     1  UNL1        0.0000
     23 C         145.0405  141.7189  164.1112 C.3     1  UNL1        0.0001
     24 C         142.2215  138.8799  158.7510 C.3     1  UNL1        0.1007
     25 C         142.1017  137.6996  157.8332 C.ar    1  UNL1        0.0129
     26 C         141.0970  137.5380  156.7312 C.ar    1  UNL1        0.0176
     27 C         141.3399  136.2121  156.0732 C.ar    1  UNL1        0.0799
     28 N         142.4948  135.5541  156.7686 N.ar    1  UNL1       -0.3038
     29 C         142.9656  136.4735  157.8564 C.ar    1  UNL1        0.0772
     30 C         143.0766  134.2125  156.4349 C.ar    1  UNL1        0.0640
     31 C         142.7681  133.5683  155.1160 C.ar    1  UNL1        0.0175
     32 C         143.3500  132.2266  154.7822 C.ar    1  UNL1        0.0053
     33 C         144.2403  131.5292  155.7674 C.ar    1  UNL1        0.0715
     34 C         144.5489  132.1733  157.0864 C.ar    1  UNL1        0.0053
     35 C         143.9670  133.5150  157.4202 C.ar    1  UNL1        0.0175
     36 C         144.8222  130.1875  155.4337 C.3     1  UNL1        0.4186
     37 F         145.4040  128.8459  155.0998 F       1  UNL1       -0.1659
     38 F         145.0628  129.9293  156.8915 F       1  UNL1       -0.1659
     39 F         144.5815  130.4458  153.9757 F       1  UNL1       -0.1659
@<TRIPOS>BOND
     1    22    23    1
     2    23    21    1
     3    21    20    1
     4    20    12    1
     5    12     8    1
     6     8     9   am
     7     9    10    2
     8     9     7    1
     9     7     1    1
    10     1     2    1
    11     2     3    1
    12     3     4    1
    13     4    24    1
    14    24    25    1
    15    25    26   ar
    16    26    27   ar
    17    27    28   ar
    18    28    30    1
    19    30    31   ar
    20    31    32   ar
    21    32    33   ar
    22    33    36    1
    23    36    37    1
    24    36    38    1
    25    36    39    1
    26    33    34   ar
    27    34    35   ar
    28    28    29   ar
    29     4     5    1
    30     5     6    1
    31    12    13    1
    32    13    14    2
    33    14    15    1
    34    15    16    1
    35    16    17    2
    36    16    18    1
    37    18    19    2
    38     6     1    1
    39    19    13    1
    40    29    25   ar
    41    35    30   ar
    42     8    11    1
@<TRIPOS>MOLECULE
*****
 39 42 0 0 0
SMALL
GASTEIGER

@<TRIPOS>ATOM
      1 C         143.7171  139.2764  162.8699 C.3     1  UNL1        0.0118
      2 C         144.3940  140.2160  161.9165 C.3     1  UNL1        0.0179
      3 C         143.8852  140.3550  160.5124 C.3     1  UNL1        0.0724
      4 N         142.6996  139.5543  160.0615 N.3     1  UNL1       -0.2689
      5 C         142.0228  138.6147  161.0149 C.3     1  UNL1        0.0724
      6 C         142.5315  138.4757  162.4190 C.3     1  UNL1        0.0179
      7 C         144.2259  139.1374  164.2742 C.3     1  UNL1        0.0851
      8 N         142.3986  140.6623  165.3160 N.am    1  UNL1       -0.3022
      9 C         143.3442  139.5036  165.4310 C.2     1  UNL1        0.2226
     10 O         143.4080  138.7111  166.7030 O.2     1  UNL1       -0.2751
     11 H         142.3567  141.1825  164.4811 H       1  UNL1        0.1497
     12 C         141.5168  141.0286  166.4728 C.3     1  UNL1        0.0950
     13 C         140.2849  140.2228  166.7614 C.2     1  UNL1        0.0083
     14 C         139.6281  139.4380  165.6648 C.2     1  UNL1       -0.0179
     15 C         138.3962  138.6323  165.9534 C.3     1  UNL1        0.1129
     16 C         137.8211  138.6114  167.3386 C.2     1  UNL1        0.2500
     17 O         136.5893  137.8057  167.6271 O.2     1  UNL1       -0.2726
     18 N         138.4780  139.3962  168.4352 N.am    1  UNL1       -0.1779
     19 C         139.7099  140.2020  168.1466 C.2     1  UNL1        0.0856
     20 C         141.8670  142.2005  167.3411 C.3     1  UNL1        0.0242
     21 C         143.0473  142.1243  168.2636 C.3     1  UNL1        0.0020
     22 C         142.8924  140.3900  170.1918 C.3     1  UNL1        0.0000
     23 C         142.8447  141.8119  169.7166 C.3     1  UNL1        0.0001
     24 C         142.1908  139.6933  158.6572 C.3     1  UNL1        0.1007
     25 C         142.5711  138.6807  157.6181 C.ar    1  UNL1        0.0129
     26 C         142.9324  138.9738  156.1921 C.ar    1  UNL1        0.0176
     27 C         143.2414  137.6714  155.5151 C.ar    1  UNL1        0.0799
     28 N         143.0710  136.5733  156.5228 N.ar    1  UNL1       -0.3038
     29 C         142.6567  137.1971  157.8225 C.ar    1  UNL1        0.0772
     30 C         143.2784  135.1086  156.2743 C.ar    1  UNL1        0.0640
     31 C         143.8107  134.2305  157.3677 C.ar    1  UNL1        0.0175
     32 C         144.0181  132.7658  157.1192 C.ar    1  UNL1        0.0053
     33 C         143.6934  132.1794  155.7775 C.ar    1  UNL1        0.0715
     34 C         143.1611  133.0575  154.6840 C.ar    1  UNL1        0.0053
     35 C         142.9537  134.5221  154.9325 C.ar    1  UNL1        0.0175
     36 C         143.9008  130.7147  155.5290 C.3     1  UNL1        0.4186
     37 F         144.1084  129.2500  155.2806 F       1  UNL1       -0.1659
     38 F         142.4614  130.5786  155.1296 F       1  UNL1       -0.1659
     39 F         145.3403  130.8508  155.9285 F       1  UNL1       -0.1659
@<TRIPOS>BOND
     1    22    23    1
     2    23    21    1
     3    21    20    1
     4    20    12    1
     5    12     8    1
     6     8     9   am
     7     9    10    2
     8     9     7    1
     9     7     1    1
    10     1     2    1
    11     2     3    1
    12     3     4    1
    13     4    24    1
    14    24    25    1
    15    25    26   ar
    16    26    27   ar
    17    27    28   ar
    18    28    30    1
    19    30    31   ar
    20    31    32   ar
    21    32    33   ar
    22    33    36    1
    23    36    37    1
    24    36    38    1
    25    36    39    1
    26    33    34   ar
    27    34    35   ar
    28    28    29   ar
    29     4     5    1
    30     5     6    1
    31    12    13    1
    32    13    14    2
    33    14    15    1
    34    15    16    1
    35    16    17    2
    36    16    18    1
    37    18    19    2
    38     6     1    1
    39    19    13    1
    40    29    25   ar
    41    35    30   ar
    42     8    11    1
@<TRIPOS>MOLECULE
*****
 39 42 0 0 0
SMALL
GASTEIGER

@<TRIPOS>ATOM
      1 C         137.8786  141.4423  162.4292 C.3     1  UNL1        0.0118
      2 C         138.2903  142.5004  161.4490 C.3     1  UNL1        0.0179
      3 C         138.4664  142.1531  160.0005 C.3     1  UNL1        0.0724
      4 N         138.2308  140.7476  159.5322 N.3     1  UNL1       -0.2689
      5 C         137.8191  139.6896  160.5124 C.3     1  UNL1        0.0724
      6 C         137.6430  140.0369  161.9610 C.3     1  UNL1        0.0179
      7 C         137.7024  141.7897  163.8779 C.3     1  UNL1        0.0851
      8 N         139.9347  141.5049  165.1763 N.am    1  UNL1       -0.3022
      9 C         138.5170  141.0857  164.9223 C.2     1  UNL1        0.2226
     10 O         137.9139  139.9625  165.7127 O.2     1  UNL1       -0.2751
     11 H         140.3305  142.2421  164.6576 H       1  UNL1        0.1497
     12 C         140.7492  140.8009  166.2208 C.3     1  UNL1        0.0950
     13 C         140.6075  141.1813  167.6648 C.2     1  UNL1        0.0083
     14 C         141.0607  142.5325  168.1324 C.2     1  UNL1       -0.0179
     15 C         140.9190  142.9129  169.5765 C.3     1  UNL1        0.1129
     16 C         140.3241  141.9421  170.5529 C.2     1  UNL1        0.2500
     17 O         140.1824  142.3224  171.9969 O.2     1  UNL1       -0.2726
     18 N         139.8709  140.5908  170.0853 N.am    1  UNL1       -0.1779
     19 C         140.0126  140.2104  168.6412 C.2     1  UNL1        0.0856
     20 C         141.7055  139.7166  165.8212 C.3     1  UNL1        0.0242
     21 C         141.4017  138.8476  164.6368 C.3     1  UNL1        0.0020
     22 C         139.3946  137.5031  163.6811 C.3     1  UNL1        0.0000
     23 C         140.4099  137.7293  164.7617 C.3     1  UNL1        0.0001
     24 C         138.4069  140.4003  158.0836 C.3     1  UNL1        0.1007
     25 C         139.6458  139.6876  157.6284 C.ar    1  UNL1        0.0129
     26 C         141.0115  140.2928  157.4928 C.ar    1  UNL1        0.0176
     27 C         141.9463  139.2239  157.0096 C.ar    1  UNL1        0.0799
     28 N         141.1583  137.9580  156.8466 N.ar    1  UNL1       -0.3038
     29 C         139.7365  138.2446  157.2290 C.ar    1  UNL1        0.0772
     30 C         141.6974  136.6373  156.3825 C.ar    1  UNL1        0.0640
     31 C         142.9748  136.1041  156.9600 C.ar    1  UNL1        0.0175
     32 C         143.5139  134.7834  156.4960 C.ar    1  UNL1        0.0053
     33 C         142.7756  133.9961  155.4545 C.ar    1  UNL1        0.0715
     34 C         141.4981  134.5294  154.8770 C.ar    1  UNL1        0.0053
     35 C         140.9590  135.8500  155.3410 C.ar    1  UNL1        0.0175
     36 C         143.3147  132.6755  154.9905 C.3     1  UNL1        0.4186
     37 F         143.8539  131.3549  154.5265 F       1  UNL1       -0.1659
     38 F         142.0868  132.4680  154.1544 F       1  UNL1       -0.1659
     39 F         144.5427  132.8830  155.8267 F       1  UNL1       -0.1659
@<TRIPOS>BOND
     1    22    23    1
     2    23    21    1
     3    21    20    1
     4    20    12    1
     5    12     8    1
     6     8     9   am
     7     9    10    2
     8     9     7    1
     9     7     1    1
    10     1     2    1
    11     2     3    1
    12     3     4    1
    13     4    24    1
    14    24    25    1
    15    25    26   ar
    16    26    27   ar
    17    27    28   ar
    18    28    30    1
    19    30    31   ar
    20    31    32   ar
    21    32    33   ar
    22    33    36    1
    23    36    37    1
    24    36    38    1
    25    36    39    1
    26    33    34   ar
    27    34    35   ar
    28    28    29   ar
    29     4     5    1
    30     5     6    1
    31    12    13    1
    32    13    14    2
    33    14    15    1
    34    15    16    1
    35    16    17    2
    36    16    18    1
    37    18    19    2
    38     6     1    1
    39    19    13    1
    40    29    25   ar
    41    35    30   ar
    42     8    11    1
@<TRIPOS>MOLECULE
*****
 39 42 0 0 0
SMALL
GASTEIGER

@<TRIPOS>ATOM
      1 C         142.5879  138.7924  159.2269 C.3     1  UNL1        0.0118
      2 C         143.0297  137.6313  160.0675 C.3     1  UNL1        0.0179
      3 C         143.8054  137.8708  161.3288 C.3     1  UNL1        0.0724
      4 N         144.1393  139.2714  161.7495 N.3     1  UNL1       -0.2689
      5 C         143.6975  140.4324  160.9089 C.3     1  UNL1        0.0724
      6 C         142.9218  140.1929  159.6476 C.3     1  UNL1        0.0179
      7 C         141.8122  138.5529  157.9655 C.3     1  UNL1        0.0851
      8 N         141.3719  136.4299  156.5341 N.am    1  UNL1       -0.3022
      9 C         142.2885  137.5328  156.9744 C.2     1  UNL1        0.2226
     10 O         143.6812  137.6154  156.4235 O.2     1  UNL1       -0.2751
     11 H         140.4578  136.3757  156.8956 H       1  UNL1        0.1497
     12 C         141.8482  135.4097  155.5430 C.3     1  UNL1        0.0950
     13 C         142.3798  134.0910  156.0207 C.2     1  UNL1        0.0083
     14 C         143.5674  134.0483  156.9361 C.2     1  UNL1       -0.0179
     15 C         144.0990  132.7295  157.4139 C.3     1  UNL1        0.1129
     16 C         143.4431  131.4535  156.9763 C.2     1  UNL1        0.2500
     17 O         143.9747  130.1347  157.4541 O.2     1  UNL1       -0.2726
     18 N         142.2555  131.4962  156.0610 N.am    1  UNL1       -0.1779
     19 C         141.7239  132.8150  155.5832 C.2     1  UNL1        0.0856
     20 C         141.7928  135.7083  154.0741 C.3     1  UNL1        0.0242
     21 C         140.9600  136.8503  153.5717 C.3     1  UNL1        0.0020
     22 C         138.5919  137.2431  154.5652 C.3     1  UNL1        0.0000
     23 C         139.4702  136.7062  153.4743 C.3     1  UNL1        0.0001
     24 C         144.9150  139.5108  163.0109 C.3     1  UNL1        0.1007
     25 C         144.5204  140.6254  163.9339 C.ar    1  UNL1        0.0129
     26 C         145.0648  142.0229  163.9118 C.ar    1  UNL1        0.0176
     27 C         144.3930  142.7994  165.0053 C.ar    1  UNL1        0.0799
     28 N         143.4333  141.8818  165.7032 N.ar    1  UNL1       -0.3038
     29 C         143.5121  140.5382  165.0410 C.ar    1  UNL1        0.0772
     30 C         142.5500  142.2442  166.8601 C.ar    1  UNL1        0.0640
     31 C         143.1101  142.2725  168.2512 C.ar    1  UNL1        0.0175
     32 C         142.2268  142.6349  169.4081 C.ar    1  UNL1        0.0053
     33 C         140.7834  142.9689  169.1739 C.ar    1  UNL1        0.0715
     34 C         140.2233  142.9406  167.7827 C.ar    1  UNL1        0.0053
     35 C         141.1066  142.5783  166.6258 C.ar    1  UNL1        0.0175
     36 C         139.9001  143.3313  170.3308 C.3     1  UNL1        0.4186
     37 F         139.0168  143.6938  171.4877 F       1  UNL1       -0.1659
     38 F         139.6598  141.8760  170.6031 F       1  UNL1       -0.1659
     39 F         140.1405  144.7868  170.0585 F       1  UNL1       -0.1659
@<TRIPOS>BOND
     1    22    23    1
     2    23    21    1
     3    21    20    1
     4    20    12    1
     5    12     8    1
     6     8     9   am
     7     9    10    2
     8     9     7    1
     9     7     1    1
    10     1     2    1
    11     2     3    1
    12     3     4    1
    13     4    24    1
    14    24    25    1
    15    25    26   ar
    16    26    27   ar
    17    27    28   ar
    18    28    30    1
    19    30    31   ar
    20    31    32   ar
    21    32    33   ar
    22    33    36    1
    23    36    37    1
    24    36    38    1
    25    36    39    1
    26    33    34   ar
    27    34    35   ar
    28    28    29   ar
    29     4     5    1
    30     5     6    1
    31    12    13    1
    32    13    14    2
    33    14    15    1
    34    15    16    1
    35    16    17    2
    36    16    18    1
    37    18    19    2
    38     6     1    1
    39    19    13    1
    40    29    25   ar
    41    35    30   ar
    42     8    11    1
@<TRIPOS>MOLECULE
*****
 39 42 0 0 0
SMALL
GASTEIGER

@<TRIPOS>ATOM
      1 C         143.5793  139.2360  162.2458 C.3     1  UNL1        0.0118
      2 C         144.0898  140.0298  161.0800 C.3     1  UNL1        0.0179
      3 C         143.5992  139.7284  159.6950 C.3     1  UNL1        0.0724
      4 N         142.5979  138.6332  159.4757 N.3     1  UNL1       -0.2689
      5 C         142.0874  137.8394  160.6416 C.3     1  UNL1        0.0724
      6 C         142.5780  138.1408  162.0266 C.3     1  UNL1        0.0179
      7 C         144.0699  139.5375  163.6309 C.3     1  UNL1        0.0851
      8 N         141.9750  140.9330  164.2742 N.am    1  UNL1       -0.3022
      9 C         143.1150  140.0426  164.6715 C.2     1  UNL1        0.2226
     10 O         143.2999  139.6574  166.1093 O.2     1  UNL1       -0.2751
     11 H         141.8536  141.1859  163.3305 H       1  UNL1        0.1497
     12 C         141.0200  141.4382  165.3148 C.3     1  UNL1        0.0950
     13 C         139.9869  140.5181  165.8945 C.2     1  UNL1        0.0083
     14 C         139.0964  139.7231  164.9862 C.2     1  UNL1       -0.0179
     15 C         138.0632  138.8030  165.5659 C.3     1  UNL1        0.1129
     16 C         137.9206  138.6779  167.0538 C.2     1  UNL1        0.2500
     17 O         136.8874  137.7578  167.6334 O.2     1  UNL1       -0.2726
     18 N         138.8111  139.4728  167.9620 N.am    1  UNL1       -0.1779
     19 C         139.8443  140.3929  167.3824 C.2     1  UNL1        0.0856
     20 C         141.0982  142.8634  165.7757 C.3     1  UNL1        0.0242
     21 C         140.3949  143.9408  165.0045 C.3     1  UNL1        0.0020
     22 C         137.8692  143.5008  164.5839 C.3     1  UNL1        0.0000
     23 C         139.2760  143.5860  164.0706 C.3     1  UNL1        0.0001
     24 C         142.1073  138.3318  158.0906 C.3     1  UNL1        0.1007
     25 C         142.8128  137.3083  157.2512 C.ar    1  UNL1        0.0129
     26 C         143.6712  137.5901  156.0537 C.ar    1  UNL1        0.0176
     27 C         144.1728  136.2793  155.5243 C.ar    1  UNL1        0.0799
     28 N         143.6244  135.1874  156.3945 N.ar    1  UNL1       -0.3038
     29 C         142.7839  135.8234  157.4618 C.ar    1  UNL1        0.0772
     30 C         143.8729  133.7177  156.2268 C.ar    1  UNL1        0.0640
     31 C         144.6784  132.9719  157.2490 C.ar    1  UNL1        0.0175
     32 C         144.9269  131.5022  157.0813 C.ar    1  UNL1        0.0053
     33 C         144.3700  130.7783  155.8915 C.ar    1  UNL1        0.0715
     34 C         143.5645  131.5241  154.8693 C.ar    1  UNL1        0.0053
     35 C         143.3160  132.9938  155.0370 C.ar    1  UNL1        0.0175
     36 C         144.6185  129.3086  155.7239 C.3     1  UNL1        0.4186
     37 F         144.8670  127.8388  155.5562 F       1  UNL1       -0.1659
     38 F         145.0085  129.2097  157.1689 F       1  UNL1       -0.1659
     39 F         144.2284  129.4074  154.2788 F       1  UNL1       -0.1659
@<TRIPOS>BOND
     1    22    23    1
     2    23    21    1
     3    21    20    1
     4    20    12    1
     5    12     8    1
     6     8     9   am
     7     9    10    2
     8     9     7    1
     9     7     1    1
    10     1     2    1
    11     2     3    1
    12     3     4    1
    13     4    24    1
    14    24    25    1
    15    25    26   ar
    16    26    27   ar
    17    27    28   ar
    18    28    30    1
    19    30    31   ar
    20    31    32   ar
    21    32    33   ar
    22    33    36    1
    23    36    37    1
    24    36    38    1
    25    36    39    1
    26    33    34   ar
    27    34    35   ar
    28    28    29   ar
    29     4     5    1
    30     5     6    1
    31    12    13    1
    32    13    14    2
    33    14    15    1
    34    15    16    1
    35    16    17    2
    36    16    18    1
    37    18    19    2
    38     6     1    1
    39    19    13    1
    40    29    25   ar
    41    35    30   ar
    42     8    11    1
@<TRIPOS>MOLECULE
*****
 39 42 0 0 0
SMALL
GASTEIGER

@<TRIPOS>ATOM
      1 C         138.8561  143.4723  162.3545 C.3     1  UNL1        0.0118
      2 C         139.8221  144.5260  161.9001 C.3     1  UNL1        0.0179
      3 C         140.2921  144.5484  160.4758 C.3     1  UNL1        0.0724
      4 N         139.7962  143.5171  159.5060 N.3     1  UNL1       -0.2689
      5 C         138.8302  142.4634  159.9604 C.3     1  UNL1        0.0724
      6 C         138.3602  142.4410  161.3847 C.3     1  UNL1        0.0179
      7 C         138.3860  143.4498  163.7788 C.3     1  UNL1        0.0851
      8 N         140.2805  142.4699  165.2624 N.am    1  UNL1       -0.3022
      9 C         138.8854  142.3912  164.7168 C.2     1  UNL1        0.2226
     10 O         137.9898  141.2537  165.1093 O.2     1  UNL1       -0.2751
     11 H         140.8684  143.2165  165.0048 H       1  UNL1        0.1497
     12 C         140.7799  141.4113  166.2004 C.3     1  UNL1        0.0950
     13 C         140.6642  141.6077  167.6830 C.2     1  UNL1        0.0083
     14 C         140.5968  142.9935  168.2530 C.2     1  UNL1       -0.0179
     15 C         140.4811  143.1898  169.7355 C.3     1  UNL1        0.1129
     16 C         140.4328  142.0004  170.6481 C.2     1  UNL1        0.2500
     17 O         140.3171  142.1968  172.1307 O.2     1  UNL1       -0.2726
     18 N         140.5002  140.6146  170.0781 N.am    1  UNL1       -0.1779
     19 C         140.6159  140.4182  168.5955 C.2     1  UNL1        0.0856
     20 C         141.3950  140.1563  165.6558 C.3     1  UNL1        0.0242
     21 C         140.5208  139.0041  165.2578 C.3     1  UNL1        0.0020
     22 C         140.9138  137.2511  163.3811 C.3     1  UNL1        0.0000
     23 C         141.1391  137.7209  164.7877 C.3     1  UNL1        0.0001
     24 C         140.2663  143.5396  158.0817 C.3     1  UNL1        0.1007
     25 C         139.6768  144.5212  157.1128 C.ar    1  UNL1        0.0129
     26 C         138.6691  144.2103  156.0461 C.ar    1  UNL1        0.0176
     27 C         138.3610  145.4830  155.3144 C.ar    1  UNL1        0.0799
     28 N         139.1783  146.5805  155.9289 N.ar    1  UNL1       -0.3038
     29 C         139.9916  145.9860  157.0403 C.ar    1  UNL1        0.0772
     30 C         139.1818  148.0197  155.5061 C.ar    1  UNL1        0.0640
     31 C         139.8105  148.4172  154.2036 C.ar    1  UNL1        0.0175
     32 C         139.8140  149.8564  153.7808 C.ar    1  UNL1        0.0053
     33 C         139.1888  150.8980  154.6606 C.ar    1  UNL1        0.0715
     34 C         138.5602  150.5005  155.9632 C.ar    1  UNL1        0.0053
     35 C         138.5567  149.0613  156.3860 C.ar    1  UNL1        0.0175
     36 C         139.1923  152.3372  154.2378 C.3     1  UNL1        0.4186
     37 F         139.1959  153.7764  153.8150 F       1  UNL1       -0.1659
     38 F         137.8066  152.5021  154.7878 F       1  UNL1       -0.1659
     39 F         140.5782  152.1723  153.6879 F       1  UNL1       -0.1659
@<TRIPOS>BOND
     1    22    23    1
     2    23    21    1
     3    21    20    1
     4    20    12    1
     5    12     8    1
     6     8     9   am
     7     9    10    2
     8     9     7    1
     9     7     1    1
    10     1     2    1
    11     2     3    1
    12     3     4    1
    13     4    24    1
    14    24    25    1
    15    25    26   ar
    16    26    27   ar
    17    27    28   ar
    18    28    30    1
    19    30    31   ar
    20    31    32   ar
    21    32    33   ar
    22    33    36    1
    23    36    37    1
    24    36    38    1
    25    36    39    1
    26    33    34   ar
    27    34    35   ar
    28    28    29   ar
    29     4     5    1
    30     5     6    1
    31    12    13    1
    32    13    14    2
    33    14    15    1
    34    15    16    1
    35    16    17    2
    36    16    18    1
    37    18    19    2
    38     6     1    1
    39    19    13    1
    40    29    25   ar
    41    35    30   ar
    42     8    11    1
@<TRIPOS>MOLECULE
*****
 39 42 0 0 0
SMALL
GASTEIGER

@<TRIPOS>ATOM
      1 C         143.0957  140.2291  162.5666 C.3     1  UNL1        0.0118
      2 C         143.9032  139.3221  161.6862 C.3     1  UNL1        0.0179
      3 C         143.6361  139.2759  160.2110 C.3     1  UNL1        0.0724
      4 N         142.5614  140.1368  159.6160 N.3     1  UNL1       -0.2689
      5 C         141.7538  141.0438  160.4964 C.3     1  UNL1        0.0724
      6 C         142.0210  141.0900  161.9716 C.3     1  UNL1        0.0179
      7 C         143.3628  140.2754  164.0419 C.3     1  UNL1        0.0851
      8 N         141.0619  140.7887  165.1341 N.am    1  UNL1       -0.3022
      9 C         142.2766  139.9170  165.0123 C.2     1  UNL1        0.2226
     10 O         142.4050  138.6868  165.8610 O.2     1  UNL1       -0.2751
     11 H         140.9776  141.5961  164.5771 H       1  UNL1        0.1497
     12 C         139.9758  140.4303  166.1045 C.3     1  UNL1        0.0950
     13 C         140.0644  140.8854  167.5310 C.2     1  UNL1        0.0083
     14 C         139.4890  140.0370  168.6261 C.2     1  UNL1       -0.0179
     15 C         139.5776  140.4921  170.0526 C.3     1  UNL1        0.1129
     16 C         140.2415  141.7956  170.3841 C.2     1  UNL1        0.2500
     17 O         140.3301  142.2507  171.8107 O.2     1  UNL1       -0.2726
     18 N         140.8169  142.6440  169.2891 N.am    1  UNL1       -0.1779
     19 C         140.7283  142.1889  167.8626 C.2     1  UNL1        0.0856
     20 C         138.8010  139.6168  165.6484 C.3     1  UNL1        0.0242
     21 C         138.9822  138.1702  165.2953 C.3     1  UNL1        0.0020
     22 C         138.6148  137.8433  162.7442 C.3     1  UNL1        0.0000
     23 C         139.5121  137.7885  163.9449 C.3     1  UNL1        0.0001
     24 C         142.2943  140.0906  158.1407 C.3     1  UNL1        0.1007
     25 C         142.7064  138.8902  157.3411 C.ar    1  UNL1        0.0129
     26 C         143.6293  138.8930  156.1587 C.ar    1  UNL1        0.0176
     27 C         143.7612  137.4808  155.6704 C.ar    1  UNL1        0.0799
     28 N         142.9197  136.6053  156.5510 N.ar    1  UNL1       -0.3038
     29 C         142.2678  137.4764  157.5836 C.ar    1  UNL1        0.0772
     30 C         142.7585  135.1196  156.4218 C.ar    1  UNL1        0.0640
     31 C         143.5995  134.1986  157.2550 C.ar    1  UNL1        0.0175
     32 C         143.4383  132.7130  157.1258 C.ar    1  UNL1        0.0053
     33 C         142.4361  132.1483  156.1633 C.ar    1  UNL1        0.0715
     34 C         141.5950  133.0692  155.3300 C.ar    1  UNL1        0.0053
     35 C         141.7562  134.5549  155.4593 C.ar    1  UNL1        0.0175
     36 C         142.2748  130.6626  156.0341 C.3     1  UNL1        0.4186
     37 F         142.1136  129.1769  155.9048 F       1  UNL1       -0.1659
     38 F         143.2118  130.4605  157.1879 F       1  UNL1       -0.1659
     39 F         141.3378  130.8646  154.8802 F       1  UNL1       -0.1659
@<TRIPOS>BOND
     1    22    23    1
     2    23    21    1
     3    21    20    1
     4    20    12    1
     5    12     8    1
     6     8     9   am
     7     9    10    2
     8     9     7    1
     9     7     1    1
    10     1     2    1
    11     2     3    1
    12     3     4    1
    13     4    24    1
    14    24    25    1
    15    25    26   ar
    16    26    27   ar
    17    27    28   ar
    18    28    30    1
    19    30    31   ar
    20    31    32   ar
    21    32    33   ar
    22    33    36    1
    23    36    37    1
    24    36    38    1
    25    36    39    1
    26    33    34   ar
    27    34    35   ar
    28    28    29   ar
    29     4     5    1
    30     5     6    1
    31    12    13    1
    32    13    14    2
    33    14    15    1
    34    15    16    1
    35    16    17    2
    36    16    18    1
    37    18    19    2
    38     6     1    1
    39    19    13    1
    40    29    25   ar
    41    35    30   ar
    42     8    11    1
@<TRIPOS>MOLECULE
*****
 39 42 0 0 0
SMALL
GASTEIGER

@<TRIPOS>ATOM
      1 C         141.7832  138.0734  162.8996 C.3     1  UNL1        0.0118
      2 C         143.2200  138.3496  162.5689 C.3     1  UNL1        0.0179
      3 C         143.6208  138.6429  161.1536 C.3     1  UNL1        0.0724
      4 N         142.5848  138.6600  160.0689 N.3     1  UNL1       -0.2689
      5 C         141.1481  138.3838  160.3996 C.3     1  UNL1        0.0724
      6 C         140.7473  138.0905  161.8149 C.3     1  UNL1        0.0179
      7 C         141.3823  137.7802  164.3150 C.3     1  UNL1        0.0851
      8 N         140.7950  140.1318  165.2504 N.am    1  UNL1       -0.3022
      9 C         140.4309  138.6934  165.0296 C.2     1  UNL1        0.2226
     10 O         139.1154  138.1684  165.5235 O.2     1  UNL1       -0.2751
     11 H         141.6584  140.4764  164.9263 H       1  UNL1        0.1497
     12 C         139.8436  141.0450  165.9650 C.3     1  UNL1        0.0950
     13 C         140.0209  141.3156  167.4297 C.2     1  UNL1        0.0083
     14 C         140.4796  142.6666  167.8927 C.2     1  UNL1       -0.0179
     15 C         140.6570  142.9371  169.3574 C.3     1  UNL1        0.1129
     16 C         140.3757  141.8567  170.3591 C.2     1  UNL1        0.2500
     17 O         140.5531  142.1272  171.8238 O.2     1  UNL1       -0.2726
     18 N         139.9170  140.5057  169.8961 N.am    1  UNL1       -0.1779
     19 C         139.7397  140.2351  168.4314 C.2     1  UNL1        0.0856
     20 C         138.7148  141.6878  165.2149 C.3     1  UNL1        0.0242
     21 C         138.7227  141.7016  163.7150 C.3     1  UNL1        0.0020
     22 C         137.6723  144.0370  163.2766 C.3     1  UNL1        0.0000
     23 C         137.7558  142.5715  162.9678 C.3     1  UNL1        0.0001
     24 C         142.9857  138.9533  158.6535 C.3     1  UNL1        0.1007
     25 C         143.0878  140.3735  158.1818 C.ar    1  UNL1        0.0129
     26 C         144.3585  141.1259  157.9187 C.ar    1  UNL1        0.0176
     27 C         143.9932  142.5081  157.4647 C.ar    1  UNL1        0.0799
     28 N         142.4967  142.6100  157.4473 N.ar    1  UNL1       -0.3038
     29 C         141.9372  141.2907  157.8905 C.ar    1  UNL1        0.0772
     30 C         141.6998  143.8188  157.0555 C.ar    1  UNL1        0.0640
     31 C         141.5533  144.1838  155.6081 C.ar    1  UNL1        0.0175
     32 C         140.7564  145.3926  155.2163 C.ar    1  UNL1        0.0053
     33 C         140.1059  146.2365  156.2720 C.ar    1  UNL1        0.0715
     34 C         140.2523  145.8716  157.7195 C.ar    1  UNL1        0.0053
     35 C         141.0492  144.6627  158.1113 C.ar    1  UNL1        0.0175
     36 C         139.3089  147.4453  155.8802 C.3     1  UNL1        0.4186
     37 F         138.5120  148.6542  155.4883 F       1  UNL1       -0.1659
     38 F         139.0449  147.7402  157.3270 F       1  UNL1       -0.1659
     39 F         139.5729  147.1505  154.4332 F       1  UNL1       -0.1659
@<TRIPOS>BOND
     1    22    23    1
     2    23    21    1
     3    21    20    1
     4    20    12    1
     5    12     8    1
     6     8     9   am
     7     9    10    2
     8     9     7    1
     9     7     1    1
    10     1     2    1
    11     2     3    1
    12     3     4    1
    13     4    24    1
    14    24    25    1
    15    25    26   ar
    16    26    27   ar
    17    27    28   ar
    18    28    30    1
    19    30    31   ar
    20    31    32   ar
    21    32    33   ar
    22    33    36    1
    23    36    37    1
    24    36    38    1
    25    36    39    1
    26    33    34   ar
    27    34    35   ar
    28    28    29   ar
    29     4     5    1
    30     5     6    1
    31    12    13    1
    32    13    14    2
    33    14    15    1
    34    15    16    1
    35    16    17    2
    36    16    18    1
    37    18    19    2
    38     6     1    1
    39    19    13    1
    40    29    25   ar
    41    35    30   ar
    42     8    11    1
