@<TRIPOS>MOLECULE
*****
 33 37 0 0 0
SMALL
GASTEIGER

@<TRIPOS>ATOM
      1 O         139.6866  139.6406  170.3699 O.2     1  UNL1       -0.2866
      2 C         140.2691  140.2270  169.1182 C.2     1  UNL1        0.1950
      3 C         139.6105  139.9744  167.7944 C.ar    1  UNL1        0.0353
      4 C         138.3692  139.1353  167.7224 C.ar    1  UNL1        0.0029
      5 C         137.7106  138.8826  166.3986 C.ar    1  UNL1        0.0001
      6 C         138.2932  139.4691  165.1470 C.ar    1  UNL1       -0.0003
      7 C         139.5344  140.3082  165.2190 C.ar    1  UNL1       -0.0039
      8 C         140.1930  140.5608  166.5428 C.ar    1  UNL1       -0.0153
      9 C         141.4343  141.4000  166.6149 C.3     1  UNL1        0.0463
     10 C         142.0930  141.6526  167.9387 C.ar    1  UNL1       -0.0153
     11 C         143.3343  142.4917  168.0108 C.ar    1  UNL1       -0.0039
     12 C         143.9929  142.7444  169.3345 C.ar    1  UNL1       -0.0003
     13 C         143.4103  142.1579  170.5862 C.ar    1  UNL1        0.0001
     14 C         142.1691  141.3188  170.5141 C.ar    1  UNL1        0.0029
     15 C         141.5104  141.0661  169.1903 C.ar    1  UNL1        0.0353
     16 C         141.1756  141.4440  165.1380 C.3     1  UNL1        0.0394
     17 C         140.6145  142.6861  164.5117 C.ar    1  UNL1        0.0364
     18 C         139.8479  143.6674  165.3481 C.ar    1  UNL1        0.1574
     19 F         139.6424  143.4065  166.8108 F       1  UNL1       -0.2028
     20 C         139.2868  144.9094  164.7216 C.ar    1  UNL1        0.1282
     21 N         139.4923  145.1703  163.2588 N.ar    1  UNL1       -0.2376
     22 C         140.2589  144.1891  162.4224 C.ar    1  UNL1        0.1282
     23 C         140.8200  142.9470  163.0489 C.ar    1  UNL1        0.1574
     24 F         141.5866  141.9658  162.2125 F       1  UNL1       -0.2028
     25 C         142.5857  142.2544  166.1741 C.3     1  UNL1        0.0394
     26 C         143.5741  141.7250  165.1777 C.ar    1  UNL1        0.0364
     27 C         144.2303  142.6583  164.2038 C.ar    1  UNL1        0.1574
     28 F         143.8981  144.1209  164.2264 F       1  UNL1       -0.2028
     29 C         145.2187  142.1290  163.2074 C.ar    1  UNL1        0.1282
     30 N         145.5509  140.6663  163.1849 N.ar    1  UNL1       -0.2376
     31 C         144.8947  139.7332  164.1587 C.ar    1  UNL1        0.1282
     32 C         143.9063  140.2625  165.1552 C.ar    1  UNL1        0.1574
     33 F         143.2501  139.3292  166.1291 F       1  UNL1       -0.2028
@<TRIPOS>BOND
     1     1     2    2
     2     2     3    1
     3     3     4   ar
     4     4     5   ar
     5     5     6   ar
     6     6     7   ar
     7     7     8   ar
     8     8     9    1
     9     9    16    1
    10    16    17    1
    11    17    18   ar
    12    18    19    1
    13    18    20   ar
    14    20    21   ar
    15    21    22   ar
    16    22    23   ar
    17    23    24    1
    18     9    25    1
    19    25    26    1
    20    26    27   ar
    21    27    28    1
    22    27    29   ar
    23    29    30   ar
    24    30    31   ar
    25    31    32   ar
    26    32    33    1
    27     9    10    1
    28    10    11   ar
    29    11    12   ar
    30    12    13   ar
    31    13    14   ar
    32    14    15   ar
    33    15     2    1
    34     8     3   ar
    35    23    17   ar
    36    32    26   ar
    37    15    10   ar
@<TRIPOS>MOLECULE
*****
 33 37 0 0 0
SMALL
GASTEIGER

@<TRIPOS>ATOM
      1 O         139.6836  139.6158  170.3613 O.2     1  UNL1       -0.2866
      2 C         140.2633  140.2078  169.1109 C.2     1  UNL1        0.1950
      3 C         141.5007  141.0525  169.1848 C.ar    1  UNL1        0.0353
      4 C         142.1583  141.3051  170.5090 C.ar    1  UNL1        0.0029
      5 C         143.3956  142.1498  170.5829 C.ar    1  UNL1        0.0001
      6 C         143.9753  142.7418  169.3325 C.ar    1  UNL1       -0.0003
      7 C         143.3177  142.4891  168.0083 C.ar    1  UNL1       -0.0039
      8 C         142.0804  141.6445  167.9344 C.ar    1  UNL1       -0.0153
      9 C         141.4227  141.3918  166.6101 C.3     1  UNL1        0.0463
     10 C         140.1854  140.5471  166.5362 C.ar    1  UNL1       -0.0153
     11 C         139.5277  140.2944  165.2120 C.ar    1  UNL1       -0.0039
     12 C         138.2904  139.4497  165.1381 C.ar    1  UNL1       -0.0003
     13 C         137.7107  138.8577  166.3885 C.ar    1  UNL1        0.0001
     14 C         138.3683  139.1104  167.7127 C.ar    1  UNL1        0.0029
     15 C         139.6057  139.9551  167.7866 C.ar    1  UNL1        0.0353
     16 C         142.5701  142.2525  166.1711 C.3     1  UNL1        0.0394
     17 C         143.5600  141.7307  165.1722 C.ar    1  UNL1        0.0364
     18 C         143.9114  140.2725  165.1561 C.ar    1  UNL1        0.1574
     19 F         143.2730  139.3362  166.1388 F       1  UNL1       -0.2028
     20 C         144.9013  139.7507  164.1571 C.ar    1  UNL1        0.1282
     21 N         145.5397  140.6870  163.1744 N.ar    1  UNL1       -0.2376
     22 C         145.1882  142.1452  163.1906 C.ar    1  UNL1        0.1282
     23 C         144.1984  142.6669  164.1895 C.ar    1  UNL1        0.1574
     24 F         143.8469  144.1251  164.2057 F       1  UNL1       -0.2028
     25 C         141.1636  141.4380  165.1334 C.3     1  UNL1        0.0394
     26 C         140.6075  142.6829  164.5081 C.ar    1  UNL1        0.0364
     27 C         140.8041  142.9387  163.0432 C.ar    1  UNL1        0.1574
     28 F         141.5568  141.9495  162.2036 F       1  UNL1       -0.2028
     29 C         140.2479  144.1836  162.4180 C.ar    1  UNL1        0.1282
     30 N         139.4952  145.1728  163.2577 N.ar    1  UNL1       -0.2376
     31 C         139.2986  144.9169  164.7226 C.ar    1  UNL1        0.1282
     32 C         139.8548  143.6720  165.3478 C.ar    1  UNL1        0.1574
     33 F         139.6582  143.4162  166.8127 F       1  UNL1       -0.2028
@<TRIPOS>BOND
     1     1     2    2
     2     2     3    1
     3     3     4   ar
     4     4     5   ar
     5     5     6   ar
     6     6     7   ar
     7     7     8   ar
     8     8     9    1
     9     9    16    1
    10    16    17    1
    11    17    18   ar
    12    18    19    1
    13    18    20   ar
    14    20    21   ar
    15    21    22   ar
    16    22    23   ar
    17    23    24    1
    18     9    25    1
    19    25    26    1
    20    26    27   ar
    21    27    28    1
    22    27    29   ar
    23    29    30   ar
    24    30    31   ar
    25    31    32   ar
    26    32    33    1
    27     9    10    1
    28    10    11   ar
    29    11    12   ar
    30    12    13   ar
    31    13    14   ar
    32    14    15   ar
    33    15     2    1
    34     8     3   ar
    35    23    17   ar
    36    32    26   ar
    37    15    10   ar
@<TRIPOS>MOLECULE
*****
 33 37 0 0 0
SMALL
GASTEIGER

@<TRIPOS>ATOM
      1 O         139.6895  139.6126  170.3590 O.2     1  UNL1       -0.2866
      2 C         140.2674  140.2062  169.1086 C.2     1  UNL1        0.1950
      3 C         139.6085  139.9541  167.7847 C.ar    1  UNL1        0.0353
      4 C         138.3718  139.1085  167.7114 C.ar    1  UNL1        0.0029
      5 C         137.7130  138.8564  166.3876 C.ar    1  UNL1        0.0001
      6 C         138.2910  139.4500  165.1372 C.ar    1  UNL1       -0.0003
      7 C         139.5277  140.2956  165.2105 C.ar    1  UNL1       -0.0039
      8 C         140.1865  140.5477  166.5343 C.ar    1  UNL1       -0.0153
      9 C         141.4233  141.3933  166.6076 C.3     1  UNL1        0.0463
     10 C         142.0820  141.6454  167.9314 C.ar    1  UNL1       -0.0153
     11 C         143.3188  142.4910  168.0048 C.ar    1  UNL1       -0.0039
     12 C         143.9776  142.7431  169.3285 C.ar    1  UNL1       -0.0003
     13 C         143.3997  142.1495  170.5790 C.ar    1  UNL1        0.0001
     14 C         142.1630  141.3039  170.5057 C.ar    1  UNL1        0.0029
     15 C         141.5041  141.0518  169.1819 C.ar    1  UNL1        0.0353
     16 C         141.1625  141.4407  165.1312 C.3     1  UNL1        0.0394
     17 C         140.6052  142.6858  164.5075 C.ar    1  UNL1        0.0364
     18 C         140.8015  142.9436  163.0429 C.ar    1  UNL1        0.1574
     19 F         141.5552  141.9563  162.2020 F       1  UNL1       -0.2028
     20 C         140.2442  144.1888  162.4194 C.ar    1  UNL1        0.1282
     21 N         139.4905  145.1762  163.2603 N.ar    1  UNL1       -0.2376
     22 C         139.2942  144.9183  164.7249 C.ar    1  UNL1        0.1282
     23 C         139.8516  143.6731  165.3485 C.ar    1  UNL1        0.1574
     24 F         139.6552  143.4153  166.8131 F       1  UNL1       -0.2028
     25 C         142.5695  142.2554  166.1682 C.3     1  UNL1        0.0394
     26 C         143.5592  141.7348  165.1685 C.ar    1  UNL1        0.0364
     27 C         143.9117  140.2769  165.1513 C.ar    1  UNL1        0.1574
     28 F         143.2744  139.3397  166.1339 F       1  UNL1       -0.2028
     29 C         144.9014  139.7563  164.1516 C.ar    1  UNL1        0.1282
     30 N         145.5387  140.6937  163.1691 N.ar    1  UNL1       -0.2376
     31 C         145.1862  142.1515  163.1863 C.ar    1  UNL1        0.1282
     32 C         144.1965  142.6721  164.1860 C.ar    1  UNL1        0.1574
     33 F         143.8440  144.1301  164.2032 F       1  UNL1       -0.2028
@<TRIPOS>BOND
     1     1     2    2
     2     2     3    1
     3     3     4   ar
     4     4     5   ar
     5     5     6   ar
     6     6     7   ar
     7     7     8   ar
     8     8     9    1
     9     9    16    1
    10    16    17    1
    11    17    18   ar
    12    18    19    1
    13    18    20   ar
    14    20    21   ar
    15    21    22   ar
    16    22    23   ar
    17    23    24    1
    18     9    25    1
    19    25    26    1
    20    26    27   ar
    21    27    28    1
    22    27    29   ar
    23    29    30   ar
    24    30    31   ar
    25    31    32   ar
    26    32    33    1
    27     9    10    1
    28    10    11   ar
    29    11    12   ar
    30    12    13   ar
    31    13    14   ar
    32    14    15   ar
    33    15     2    1
    34     8     3   ar
    35    23    17   ar
    36    32    26   ar
    37    15    10   ar
@<TRIPOS>MOLECULE
*****
 33 37 0 0 0
SMALL
GASTEIGER

@<TRIPOS>ATOM
      1 O         139.6819  139.6169  170.3577 O.2     1  UNL1       -0.2866
      2 C         140.2620  140.2093  169.1077 C.2     1  UNL1        0.1950
      3 C         141.4988  141.0549  169.1825 C.ar    1  UNL1        0.0353
      4 C         142.1555  141.3078  170.5071 C.ar    1  UNL1        0.0029
      5 C         143.3922  142.1533  170.5818 C.ar    1  UNL1        0.0001
      6 C         143.9723  142.7458  169.3318 C.ar    1  UNL1       -0.0003
      7 C         143.3156  142.4928  168.0072 C.ar    1  UNL1       -0.0039
      8 C         142.0789  141.6473  167.9325 C.ar    1  UNL1       -0.0153
      9 C         141.4222  141.3943  166.6078 C.3     1  UNL1        0.0463
     10 C         140.1855  140.5488  166.5331 C.ar    1  UNL1       -0.0153
     11 C         139.5287  140.2958  165.2084 C.ar    1  UNL1       -0.0039
     12 C         138.2920  139.4504  165.1337 C.ar    1  UNL1       -0.0003
     13 C         137.7119  138.8579  166.3837 C.ar    1  UNL1        0.0001
     14 C         138.3686  139.1109  167.7084 C.ar    1  UNL1        0.0029
     15 C         139.6054  139.9564  167.7831 C.ar    1  UNL1        0.0353
     16 C         142.5693  142.2559  166.1695 C.3     1  UNL1        0.0394
     17 C         143.5598  141.7349  165.1709 C.ar    1  UNL1        0.0364
     18 C         143.9112  140.2767  165.1536 C.ar    1  UNL1        0.1574
     19 F         143.2720  139.3395  166.1350 F       1  UNL1       -0.2028
     20 C         144.9018  139.7558  164.1549 C.ar    1  UNL1        0.1282
     21 N         145.5410  140.6930  163.1735 N.ar    1  UNL1       -0.2376
     22 C         145.1896  142.1512  163.1908 C.ar    1  UNL1        0.1282
     23 C         144.1990  142.6720  164.1895 C.ar    1  UNL1        0.1574
     24 F         143.8477  144.1302  164.2068 F       1  UNL1       -0.2028
     25 C         141.1639  141.4405  165.1309 C.3     1  UNL1        0.0394
     26 C         140.6081  142.6854  164.5053 C.ar    1  UNL1        0.0364
     27 C         139.8536  143.6738  165.3443 C.ar    1  UNL1        0.1574
     28 F         139.6549  143.4172  166.8088 F       1  UNL1       -0.2028
     29 C         139.2978  144.9187  164.7188 C.ar    1  UNL1        0.1282
     30 N         139.4965  145.1752  163.2542 N.ar    1  UNL1       -0.2376
     31 C         140.2510  144.1868  162.4153 C.ar    1  UNL1        0.1282
     32 C         140.8068  142.9419  163.0409 C.ar    1  UNL1        0.1574
     33 F         141.5613  141.9535  162.2019 F       1  UNL1       -0.2028
@<TRIPOS>BOND
     1     1     2    2
     2     2     3    1
     3     3     4   ar
     4     4     5   ar
     5     5     6   ar
     6     6     7   ar
     7     7     8   ar
     8     8     9    1
     9     9    16    1
    10    16    17    1
    11    17    18   ar
    12    18    19    1
    13    18    20   ar
    14    20    21   ar
    15    21    22   ar
    16    22    23   ar
    17    23    24    1
    18     9    25    1
    19    25    26    1
    20    26    27   ar
    21    27    28    1
    22    27    29   ar
    23    29    30   ar
    24    30    31   ar
    25    31    32   ar
    26    32    33    1
    27     9    10    1
    28    10    11   ar
    29    11    12   ar
    30    12    13   ar
    31    13    14   ar
    32    14    15   ar
    33    15     2    1
    34     8     3   ar
    35    23    17   ar
    36    32    26   ar
    37    15    10   ar
@<TRIPOS>MOLECULE
*****
 33 37 0 0 0
SMALL
GASTEIGER

@<TRIPOS>ATOM
      1 O         143.8678  142.6253  169.0934 O.2     1  UNL1       -0.2866
      2 C         142.9476  142.2344  167.9752 C.2     1  UNL1        0.1950
      3 C         141.7038  141.4485  168.2675 C.ar    1  UNL1        0.0353
      4 C         141.3802  141.0535  169.6779 C.ar    1  UNL1        0.0029
      5 C         140.1365  140.2676  169.9701 C.ar    1  UNL1        0.0001
      6 C         139.2163  139.8767  168.8519 C.ar    1  UNL1       -0.0003
      7 C         139.5398  140.2716  167.4415 C.ar    1  UNL1       -0.0039
      8 C         140.7835  141.0575  167.1493 C.ar    1  UNL1       -0.0153
      9 C         141.1071  141.4525  165.7388 C.3     1  UNL1        0.0463
     10 C         142.3509  142.2384  165.4466 C.ar    1  UNL1       -0.0153
     11 C         142.6745  142.6334  164.0361 C.ar    1  UNL1       -0.0039
     12 C         143.9182  143.4193  163.7439 C.ar    1  UNL1       -0.0003
     13 C         144.8384  143.8102  164.8621 C.ar    1  UNL1        0.0001
     14 C         144.5149  143.4153  166.2726 C.ar    1  UNL1        0.0029
     15 C         143.2711  142.6293  166.5648 C.ar    1  UNL1        0.0353
     16 C         139.8205  140.7148  165.5141 C.3     1  UNL1        0.0394
     17 C         139.7929  139.5102  164.6208 C.ar    1  UNL1        0.0364
     18 C         140.9446  138.5492  164.6217 C.ar    1  UNL1        0.1574
     19 F         142.1241  138.7929  165.5158 F       1  UNL1       -0.2028
     20 C         140.9169  137.3445  163.7283 C.ar    1  UNL1        0.1282
     21 N         139.7375  137.1008  162.8342 N.ar    1  UNL1       -0.2376
     22 C         138.5857  138.0618  162.8333 C.ar    1  UNL1        0.1282
     23 C         138.6134  139.2664  163.7267 C.ar    1  UNL1        0.1574
     24 F         137.4616  140.2274  163.7258 F       1  UNL1       -0.2028
     25 C         140.9838  141.5913  164.2503 C.3     1  UNL1        0.0394
     26 C         139.9486  142.5058  163.6655 C.ar    1  UNL1        0.0364
     27 C         139.3902  143.6295  164.4875 C.ar    1  UNL1        0.1574
     28 F         139.8671  143.8385  165.8942 F       1  UNL1       -0.2028
     29 C         138.3550  144.5440  163.9028 C.ar    1  UNL1        0.1282
     30 N         137.8782  144.3348  162.4960 N.ar    1  UNL1       -0.2376
     31 C         138.4366  143.2112  161.6741 C.ar    1  UNL1        0.1282
     32 C         139.4718  142.2967  162.2588 C.ar    1  UNL1        0.1574
     33 F         140.0302  141.1730  161.4368 F       1  UNL1       -0.2028
@<TRIPOS>BOND
     1     1     2    2
     2     2     3    1
     3     3     4   ar
     4     4     5   ar
     5     5     6   ar
     6     6     7   ar
     7     7     8   ar
     8     8     9    1
     9     9    16    1
    10    16    17    1
    11    17    18   ar
    12    18    19    1
    13    18    20   ar
    14    20    21   ar
    15    21    22   ar
    16    22    23   ar
    17    23    24    1
    18     9    25    1
    19    25    26    1
    20    26    27   ar
    21    27    28    1
    22    27    29   ar
    23    29    30   ar
    24    30    31   ar
    25    31    32   ar
    26    32    33    1
    27     9    10    1
    28    10    11   ar
    29    11    12   ar
    30    12    13   ar
    31    13    14   ar
    32    14    15   ar
    33    15     2    1
    34     8     3   ar
    35    23    17   ar
    36    32    26   ar
    37    15    10   ar
@<TRIPOS>MOLECULE
*****
 33 37 0 0 0
SMALL
GASTEIGER

@<TRIPOS>ATOM
      1 O         143.8645  142.6248  169.0951 O.2     1  UNL1       -0.2866
      2 C         142.9454  142.2332  167.9762 C.2     1  UNL1        0.1950
      3 C         143.2702  142.6279  166.5659 C.ar    1  UNL1        0.0353
      4 C         144.5140  143.4141  166.2746 C.ar    1  UNL1        0.0029
      5 C         144.8387  143.8088  164.8644 C.ar    1  UNL1        0.0001
      6 C         143.9196  143.4173  163.7455 C.ar    1  UNL1       -0.0003
      7 C         142.6759  142.6311  164.0367 C.ar    1  UNL1       -0.0039
      8 C         142.3511  142.2364  165.4470 C.ar    1  UNL1       -0.0153
      9 C         141.1073  141.4502  165.7383 C.3     1  UNL1        0.0463
     10 C         140.7826  141.0556  167.1485 C.ar    1  UNL1       -0.0153
     11 C         139.5387  140.2693  167.4398 C.ar    1  UNL1       -0.0039
     12 C         139.2140  139.8747  168.8501 C.ar    1  UNL1       -0.0003
     13 C         140.1331  140.2662  169.9690 C.ar    1  UNL1        0.0001
     14 C         141.3769  141.0524  169.6777 C.ar    1  UNL1        0.0029
     15 C         141.7016  141.4471  168.2674 C.ar    1  UNL1        0.0353
     16 C         140.9854  141.5885  164.2496 C.3     1  UNL1        0.0394
     17 C         139.9527  142.5052  163.6637 C.ar    1  UNL1        0.0364
     18 C         139.3927  143.6276  164.4863 C.ar    1  UNL1        0.1574
     19 F         139.8655  143.8333  165.8949 F       1  UNL1       -0.2028
     20 C         138.3601  144.5441  163.9002 C.ar    1  UNL1        0.1282
     21 N         137.8874  144.3384  162.4916 N.ar    1  UNL1       -0.2376
     22 C         138.4474  143.2160  161.6690 C.ar    1  UNL1        0.1282
     23 C         139.4800  142.2994  162.2550 C.ar    1  UNL1        0.1574
     24 F         140.0400  141.1770  161.4324 F       1  UNL1       -0.2028
     25 C         139.8211  140.7120  165.5126 C.3     1  UNL1        0.0394
     26 C         139.7950  139.5063  164.6207 C.ar    1  UNL1        0.0364
     27 C         138.6162  139.2605  163.7261 C.ar    1  UNL1        0.1574
     28 F         137.4637  140.2206  163.7235 F       1  UNL1       -0.2028
     29 C         138.5901  138.0548  162.8343 C.ar    1  UNL1        0.1282
     30 N         139.7427  137.0948  162.8370 N.ar    1  UNL1       -0.2376
     31 C         140.9214  137.3406  163.7315 C.ar    1  UNL1        0.1282
     32 C         140.9475  138.5463  164.6234 C.ar    1  UNL1        0.1574
     33 F         142.1263  138.7921  165.5180 F       1  UNL1       -0.2028
@<TRIPOS>BOND
     1     1     2    2
     2     2     3    1
     3     3     4   ar
     4     4     5   ar
     5     5     6   ar
     6     6     7   ar
     7     7     8   ar
     8     8     9    1
     9     9    16    1
    10    16    17    1
    11    17    18   ar
    12    18    19    1
    13    18    20   ar
    14    20    21   ar
    15    21    22   ar
    16    22    23   ar
    17    23    24    1
    18     9    25    1
    19    25    26    1
    20    26    27   ar
    21    27    28    1
    22    27    29   ar
    23    29    30   ar
    24    30    31   ar
    25    31    32   ar
    26    32    33    1
    27     9    10    1
    28    10    11   ar
    29    11    12   ar
    30    12    13   ar
    31    13    14   ar
    32    14    15   ar
    33    15     2    1
    34     8     3   ar
    35    23    17   ar
    36    32    26   ar
    37    15    10   ar
@<TRIPOS>MOLECULE
*****
 33 37 0 0 0
SMALL
GASTEIGER

@<TRIPOS>ATOM
      1 O         143.8657  142.6277  169.0962 O.2     1  UNL1       -0.2866
      2 C         142.9459  142.2371  167.9775 C.2     1  UNL1        0.1950
      3 C         143.2700  142.6326  166.5673 C.ar    1  UNL1        0.0353
      4 C         144.5138  143.4187  166.2758 C.ar    1  UNL1        0.0029
      5 C         144.8377  143.8141  164.8656 C.ar    1  UNL1        0.0001
      6 C         143.9179  143.4235  163.7470 C.ar    1  UNL1       -0.0003
      7 C         142.6741  142.6375  164.0385 C.ar    1  UNL1       -0.0039
      8 C         142.3501  142.2420  165.4487 C.ar    1  UNL1       -0.0153
      9 C         141.1063  141.4559  165.7403 C.3     1  UNL1        0.0463
     10 C         140.7823  141.0604  167.1504 C.ar    1  UNL1       -0.0153
     11 C         139.5385  140.2743  167.4420 C.ar    1  UNL1       -0.0039
     12 C         139.2145  139.8789  168.8522 C.ar    1  UNL1       -0.0003
     13 C         140.1343  140.2695  169.9708 C.ar    1  UNL1        0.0001
     14 C         141.3781  141.0555  169.6793 C.ar    1  UNL1        0.0029
     15 C         141.7021  141.4510  168.2691 C.ar    1  UNL1        0.0353
     16 C         140.9835  141.5952  164.2518 C.3     1  UNL1        0.0394
     17 C         139.9491  142.5105  163.6669 C.ar    1  UNL1        0.0364
     18 C         139.4736  142.3031  162.2594 C.ar    1  UNL1        0.1574
     19 F         140.0326  141.1802  161.4369 F       1  UNL1       -0.2028
     20 C         138.4392  143.2185  161.6747 C.ar    1  UNL1        0.1282
     21 N         137.8803  144.3414  162.4973 N.ar    1  UNL1       -0.2376
     22 C         138.3557  144.5489  163.9047 C.ar    1  UNL1        0.1282
     23 C         139.3901  143.6334  164.4895 C.ar    1  UNL1        0.1574
     24 F         139.8656  143.8409  165.8970 F       1  UNL1       -0.2028
     25 C         139.8198  140.7182  165.5148 C.3     1  UNL1        0.0394
     26 C         139.7931  139.5121  164.6234 C.ar    1  UNL1        0.0364
     27 C         140.9461  138.5525  164.6252 C.ar    1  UNL1        0.1574
     28 F         142.1256  138.7991  165.5185 F       1  UNL1       -0.2028
     29 C         140.9195  137.3464  163.7338 C.ar    1  UNL1        0.1282
     30 N         139.7399  137.1000  162.8405 N.ar    1  UNL1       -0.2376
     31 C         138.5870  138.0595  162.8387 C.ar    1  UNL1        0.1282
     32 C         138.6136  139.2656  163.7302 C.ar    1  UNL1        0.1574
     33 F         137.4607  140.2252  163.7283 F       1  UNL1       -0.2028
@<TRIPOS>BOND
     1     1     2    2
     2     2     3    1
     3     3     4   ar
     4     4     5   ar
     5     5     6   ar
     6     6     7   ar
     7     7     8   ar
     8     8     9    1
     9     9    16    1
    10    16    17    1
    11    17    18   ar
    12    18    19    1
    13    18    20   ar
    14    20    21   ar
    15    21    22   ar
    16    22    23   ar
    17    23    24    1
    18     9    25    1
    19    25    26    1
    20    26    27   ar
    21    27    28    1
    22    27    29   ar
    23    29    30   ar
    24    30    31   ar
    25    31    32   ar
    26    32    33    1
    27     9    10    1
    28    10    11   ar
    29    11    12   ar
    30    12    13   ar
    31    13    14   ar
    32    14    15   ar
    33    15     2    1
    34     8     3   ar
    35    23    17   ar
    36    32    26   ar
    37    15    10   ar
@<TRIPOS>MOLECULE
*****
 33 37 0 0 0
SMALL
GASTEIGER

@<TRIPOS>ATOM
      1 O         143.8661  142.6279  169.0946 O.2     1  UNL1       -0.2866
      2 C         142.9461  142.2374  167.9760 C.2     1  UNL1        0.1950
      3 C         141.7023  141.4513  168.2676 C.ar    1  UNL1        0.0353
      4 C         141.3785  141.0558  169.6778 C.ar    1  UNL1        0.0029
      5 C         140.1347  140.2697  169.9694 C.ar    1  UNL1        0.0001
      6 C         139.2147  139.8792  168.8508 C.ar    1  UNL1       -0.0003
      7 C         139.5385  140.2748  167.4407 C.ar    1  UNL1       -0.0039
      8 C         140.7823  141.0609  167.1491 C.ar    1  UNL1       -0.0153
      9 C         141.1062  141.4565  165.7389 C.3     1  UNL1        0.0463
     10 C         142.3500  142.2425  165.4473 C.ar    1  UNL1       -0.0153
     11 C         142.6739  142.6381  164.0370 C.ar    1  UNL1       -0.0039
     12 C         143.9177  143.4242  163.7454 C.ar    1  UNL1       -0.0003
     13 C         144.8376  143.8146  164.8640 C.ar    1  UNL1        0.0001
     14 C         144.5138  143.4191  166.2742 C.ar    1  UNL1        0.0029
     15 C         143.2700  142.6330  166.5658 C.ar    1  UNL1        0.0353
     16 C         139.8197  140.7188  165.5135 C.3     1  UNL1        0.0394
     17 C         139.7927  139.5130  164.6218 C.ar    1  UNL1        0.0364
     18 C         140.9454  138.5531  164.6233 C.ar    1  UNL1        0.1574
     19 F         142.1250  138.7991  165.5166 F       1  UNL1       -0.2028
     20 C         140.9184  137.3473  163.7315 C.ar    1  UNL1        0.1282
     21 N         139.7388  137.1013  162.8382 N.ar    1  UNL1       -0.2376
     22 C         138.5861  138.0612  162.8367 C.ar    1  UNL1        0.1282
     23 C         138.6131  139.2670  163.7285 C.ar    1  UNL1        0.1574
     24 F         137.4604  140.2269  163.7270 F       1  UNL1       -0.2028
     25 C         140.9832  141.5959  164.2504 C.3     1  UNL1        0.0394
     26 C         139.9493  142.5119  163.6658 C.ar    1  UNL1        0.0364
     27 C         139.4743  142.3055  162.2580 C.ar    1  UNL1        0.1574
     28 F         140.0334  141.1831  161.4349 F       1  UNL1       -0.2028
     29 C         138.4403  143.2215  161.6734 C.ar    1  UNL1        0.1282
     30 N         137.8813  144.3440  162.4966 N.ar    1  UNL1       -0.2376
     31 C         138.3562  144.5503  163.9044 C.ar    1  UNL1        0.1282
     32 C         139.3902  143.6343  164.4890 C.ar    1  UNL1        0.1574
     33 F         139.8651  143.8407  165.8968 F       1  UNL1       -0.2028
@<TRIPOS>BOND
     1     1     2    2
     2     2     3    1
     3     3     4   ar
     4     4     5   ar
     5     5     6   ar
     6     6     7   ar
     7     7     8   ar
     8     8     9    1
     9     9    16    1
    10    16    17    1
    11    17    18   ar
    12    18    19    1
    13    18    20   ar
    14    20    21   ar
    15    21    22   ar
    16    22    23   ar
    17    23    24    1
    18     9    25    1
    19    25    26    1
    20    26    27   ar
    21    27    28    1
    22    27    29   ar
    23    29    30   ar
    24    30    31   ar
    25    31    32   ar
    26    32    33    1
    27     9    10    1
    28    10    11   ar
    29    11    12   ar
    30    12    13   ar
    31    13    14   ar
    32    14    15   ar
    33    15     2    1
    34     8     3   ar
    35    23    17   ar
    36    32    26   ar
    37    15    10   ar
@<TRIPOS>MOLECULE
*****
 33 37 0 0 0
SMALL
GASTEIGER

@<TRIPOS>ATOM
      1 O         137.7916  139.1765  169.3640 O.2     1  UNL1       -0.2866
      2 C         138.7428  139.7781  168.3723 C.2     1  UNL1        0.1950
      3 C         139.5492  140.9869  168.7446 C.ar    1  UNL1        0.0353
      4 C         139.4045  141.5941  170.1085 C.ar    1  UNL1        0.0029
      5 C         140.2109  142.8028  170.4807 C.ar    1  UNL1        0.0001
      6 C         141.1621  143.4043  169.4890 C.ar    1  UNL1       -0.0003
      7 C         141.3068  142.7971  168.1251 C.ar    1  UNL1       -0.0039
      8 C         140.5004  141.5884  167.7529 C.ar    1  UNL1       -0.0153
      9 C         140.6451  140.9811  166.3889 C.3     1  UNL1        0.0463
     10 C         139.8386  139.7724  166.0167 C.ar    1  UNL1       -0.0153
     11 C         139.9833  139.1651  164.6527 C.ar    1  UNL1       -0.0039
     12 C         139.1769  137.9564  164.2805 C.ar    1  UNL1       -0.0003
     13 C         138.2257  137.3549  165.2722 C.ar    1  UNL1        0.0001
     14 C         138.0810  137.9621  166.6361 C.ar    1  UNL1        0.0029
     15 C         138.8875  139.1709  167.0084 C.ar    1  UNL1        0.0353
     16 C         141.6193  142.1158  166.2735 C.3     1  UNL1        0.0394
     17 C         141.3839  143.2076  165.2723 C.ar    1  UNL1        0.0364
     18 C         139.9833  143.6134  164.9205 C.ar    1  UNL1        0.1574
     19 F         138.8182  142.9274  165.5700 F       1  UNL1       -0.2028
     20 C         139.7480  144.7052  163.9192 C.ar    1  UNL1        0.1282
     21 N         140.9131  145.3912  163.2696 N.ar    1  UNL1       -0.2376
     22 C         142.3137  144.9854  163.6214 C.ar    1  UNL1        0.1282
     23 C         142.5490  143.8936  164.6227 C.ar    1  UNL1        0.1574
     24 F         143.9496  143.4878  164.9745 F       1  UNL1       -0.2028
     25 C         141.1281  140.7679  164.9849 C.3     1  UNL1        0.0394
     26 C         142.5136  140.2482  164.7392 C.ar    1  UNL1        0.0364
     27 C         143.1790  139.3744  165.7609 C.ar    1  UNL1        0.1574
     28 F         142.4588  139.0204  167.0281 F       1  UNL1       -0.2028
     29 C         144.5644  138.8547  165.5152 C.ar    1  UNL1        0.1282
     30 N         145.2845  139.2088  164.2479 N.ar    1  UNL1       -0.2376
     31 C         144.6192  140.0826  163.2263 C.ar    1  UNL1        0.1282
     32 C         143.2337  140.6023  163.4719 C.ar    1  UNL1        0.1574
     33 F         142.5683  141.4761  162.4502 F       1  UNL1       -0.2028
@<TRIPOS>BOND
     1     1     2    2
     2     2     3    1
     3     3     4   ar
     4     4     5   ar
     5     5     6   ar
     6     6     7   ar
     7     7     8   ar
     8     8     9    1
     9     9    16    1
    10    16    17    1
    11    17    18   ar
    12    18    19    1
    13    18    20   ar
    14    20    21   ar
    15    21    22   ar
    16    22    23   ar
    17    23    24    1
    18     9    25    1
    19    25    26    1
    20    26    27   ar
    21    27    28    1
    22    27    29   ar
    23    29    30   ar
    24    30    31   ar
    25    31    32   ar
    26    32    33    1
    27     9    10    1
    28    10    11   ar
    29    11    12   ar
    30    12    13   ar
    31    13    14   ar
    32    14    15   ar
    33    15     2    1
    34     8     3   ar
    35    23    17   ar
    36    32    26   ar
    37    15    10   ar
