@<TRIPOS>MOLECULE
*****
 27 30 0 0 0
SMALL
GASTEIGER

@<TRIPOS>ATOM
      1 C         139.4952  141.6179  164.6274 C.ar    1  UNL1        0.0681
      2 C         138.3985  142.6384  164.5514 C.ar    1  UNL1        0.0208
      3 C         137.9200  143.1270  163.2164 C.ar    1  UNL1        0.0384
      4 C         138.5382  142.5952  161.9575 C.ar    1  UNL1        0.1386
      5 C         139.6349  141.5747  162.0336 C.ar    1  UNL1        0.0384
      6 C         140.1134  141.0861  163.3685 C.ar    1  UNL1        0.0208
      7 C         138.0429  139.3917  166.0185 C.3     1  UNL1        0.0723
      8 C         139.2476  140.0162  166.6580 C.ar    1  UNL1        0.1268
      9 N         139.7260  139.5275  167.9930 N.ar    1  UNL1       -0.2318
     10 C         140.9307  140.1519  168.6326 C.ar    1  UNL1        0.0872
     11 C         141.4091  139.6633  169.9676 C.ar    1  UNL1        0.0193
     12 C         142.6137  140.2877  170.6071 C.ar    1  UNL1        0.0015
     13 C         143.3398  141.4008  169.9116 C.ar    1  UNL1        0.0003
     14 C         142.8614  141.8894  168.5766 C.ar    1  UNL1        0.0063
     15 C         141.6568  141.2650  167.9371 C.ar    1  UNL1        0.0742
     16 C         141.1783  141.7537  166.6020 C.ar    1  UNL1        0.2669
     17 O         141.9045  142.8667  165.9065 O.2     1  UNL1       -0.2665
     18 N         139.9737  141.1292  165.9625 N.ar    1  UNL1       -0.2626
     19 O         138.0597  143.0839  160.6224 O.3     1  UNL1       -0.4754
     20 C         138.8607  142.7960  159.3873 C.3     1  UNL1        0.2068
     21 C         139.9324  143.7497  158.9492 C.3     1  UNL1        0.0646
     22 C         140.1762  145.0110  159.7235 C.3     1  UNL1        0.0759
     23 N         140.9026  144.9576  161.0347 N.3     1  UNL1       -0.2726
     24 C         140.5103  145.6789  162.2901 C.3     1  UNL1        0.0721
     25 C         141.5141  145.3406  163.3521 C.3     1  UNL1        0.0188
     26 C         142.5269  144.4103  162.7532 C.3     1  UNL1        0.0188
     27 C         142.1490  144.1736  161.3209 C.3     1  UNL1        0.0721
@<TRIPOS>BOND
     1     7     8    1
     2     8     9   ar
     3     9    10   ar
     4    10    11   ar
     5    11    12   ar
     6    12    13   ar
     7    13    14   ar
     8    14    15   ar
     9    15    16   ar
    10    16    17    2
    11    16    18   ar
    12    18     1    1
    13     1     2   ar
    14     2     3   ar
    15     3     4   ar
    16     4    19    1
    17    19    20    1
    18    20    21    1
    19    21    22    1
    20    22    23    1
    21    23    24    1
    22    24    25    1
    23    25    26    1
    24    26    27    1
    25     4     5   ar
    26     5     6   ar
    27    18     8   ar
    28     6     1   ar
    29    15    10   ar
    30    27    23    1
@<TRIPOS>MOLECULE
*****
 27 30 0 0 0
SMALL
GASTEIGER

@<TRIPOS>ATOM
      1 C         140.6141  139.1200  164.9839 C.ar    1  UNL1        0.0681
      2 C         141.0814  137.7192  164.7205 C.ar    1  UNL1        0.0208
      3 C         141.2597  137.2407  163.3101 C.ar    1  UNL1        0.0384
      4 C         140.9706  138.1631  162.1631 C.ar    1  UNL1        0.1386
      5 C         140.5033  139.5639  162.4265 C.ar    1  UNL1        0.0384
      6 C         140.3251  140.0423  163.8369 C.ar    1  UNL1        0.0208
      7 C         138.0478  138.5760  166.4392 C.3     1  UNL1        0.0723
      8 C         139.1527  139.3264  167.1220 C.ar    1  UNL1        0.1268
      9 N         138.9744  139.8048  168.5325 N.ar    1  UNL1       -0.2318
     10 C         140.0793  140.5552  169.2153 C.ar    1  UNL1        0.0872
     11 C         139.9010  141.0336  170.6257 C.ar    1  UNL1        0.0193
     12 C         141.0059  141.7840  171.3084 C.ar    1  UNL1        0.0015
     13 C         142.2890  142.0560  170.5807 C.ar    1  UNL1        0.0003
     14 C         142.4673  141.5776  169.1703 C.ar    1  UNL1        0.0063
     15 C         141.3624  140.8272  168.4876 C.ar    1  UNL1        0.0742
     16 C         141.5407  140.3488  167.0771 C.ar    1  UNL1        0.2669
     17 O         142.8239  140.6208  166.3494 O.2     1  UNL1       -0.2665
     18 N         140.4358  139.5984  166.3944 N.ar    1  UNL1       -0.2626
     19 O         141.1489  137.6846  160.7526 O.3     1  UNL1       -0.4754
     20 C         141.9278  138.5115  159.7730 C.3     1  UNL1        0.2068
     21 C         143.3565  138.8666  160.0602 C.3     1  UNL1        0.0646
     22 C         143.7057  140.2464  160.5337 C.3     1  UNL1        0.0759
     23 N         144.3582  140.4378  161.8707 N.3     1  UNL1       -0.2726
     24 C         144.3748  139.4439  162.9941 C.3     1  UNL1        0.0721
     25 C         145.1356  140.0485  164.1368 C.3     1  UNL1        0.0188
     26 C         145.5892  141.4161  163.7197 C.3     1  UNL1        0.0188
     27 C         145.1087  141.6567  162.3191 C.3     1  UNL1        0.0721
@<TRIPOS>BOND
     1     7     8    1
     2     8     9   ar
     3     9    10   ar
     4    10    11   ar
     5    11    12   ar
     6    12    13   ar
     7    13    14   ar
     8    14    15   ar
     9    15    16   ar
    10    16    17    2
    11    16    18   ar
    12    18     1    1
    13     1     2   ar
    14     2     3   ar
    15     3     4   ar
    16     4    19    1
    17    19    20    1
    18    20    21    1
    19    21    22    1
    20    22    23    1
    21    23    24    1
    22    24    25    1
    23    25    26    1
    24    26    27    1
    25     4     5   ar
    26     5     6   ar
    27    18     8   ar
    28     6     1   ar
    29    15    10   ar
    30    27    23    1
@<TRIPOS>MOLECULE
*****
 27 30 0 0 0
SMALL
GASTEIGER

@<TRIPOS>ATOM
      1 C         140.9640  139.4476  164.8544 C.ar    1  UNL1        0.0681
      2 C         140.0144  138.2865  164.8641 C.ar    1  UNL1        0.0208
      3 C         139.5072  137.7217  163.5704 C.ar    1  UNL1        0.0384
      4 C         139.9497  138.3179  162.2671 C.ar    1  UNL1        0.1386
      5 C         140.8993  139.4790  162.2574 C.ar    1  UNL1        0.0384
      6 C         141.4065  140.0439  163.5511 C.ar    1  UNL1        0.0208
      7 C         143.3379  138.2064  166.2049 C.3     1  UNL1        0.0723
      8 C         142.6581  139.3919  166.8234 C.ar    1  UNL1        0.1268
      9 N         143.1653  139.9566  168.1172 N.ar    1  UNL1       -0.2318
     10 C         142.4855  141.1421  168.7357 C.ar    1  UNL1        0.0872
     11 C         142.9926  141.7069  170.0294 C.ar    1  UNL1        0.0193
     12 C         142.3128  142.8923  170.6479 C.ar    1  UNL1        0.0015
     13 C         141.1259  143.5130  169.9727 C.ar    1  UNL1        0.0003
     14 C         140.6187  142.9482  168.6790 C.ar    1  UNL1        0.0063
     15 C         141.2985  141.7628  168.0605 C.ar    1  UNL1        0.0742
     16 C         140.7914  141.1979  166.7667 C.ar    1  UNL1        0.2669
     17 O         139.6044  141.8185  166.0915 O.2     1  UNL1       -0.2665
     18 N         141.4712  140.0125  166.1482 N.ar    1  UNL1       -0.2626
     19 O         139.4425  137.7531  160.9733 O.3     1  UNL1       -0.4754
     20 C         139.5812  138.5419  159.7050 C.3     1  UNL1        0.2068
     21 C         138.6129  139.6457  159.3986 C.3     1  UNL1        0.0646
     22 C         137.4981  139.9522  160.3542 C.3     1  UNL1        0.0759
     23 N         137.6520  141.0576  161.3564 N.3     1  UNL1       -0.2726
     24 C         138.1357  142.4480  161.0681 C.3     1  UNL1        0.0721
     25 C         138.1319  143.2165  162.3563 C.3     1  UNL1        0.0188
     26 C         137.6459  142.3011  163.4407 C.3     1  UNL1        0.0188
     27 C         137.3493  140.9669  162.8227 C.3     1  UNL1        0.0721
@<TRIPOS>BOND
     1     7     8    1
     2     8     9   ar
     3     9    10   ar
     4    10    11   ar
     5    11    12   ar
     6    12    13   ar
     7    13    14   ar
     8    14    15   ar
     9    15    16   ar
    10    16    17    2
    11    16    18   ar
    12    18     1    1
    13     1     2   ar
    14     2     3   ar
    15     3     4   ar
    16     4    19    1
    17    19    20    1
    18    20    21    1
    19    21    22    1
    20    22    23    1
    21    23    24    1
    22    24    25    1
    23    25    26    1
    24    26    27    1
    25     4     5   ar
    26     5     6   ar
    27    18     8   ar
    28     6     1   ar
    29    15    10   ar
    30    27    23    1
@<TRIPOS>MOLECULE
*****
 27 30 0 0 0
SMALL
GASTEIGER

@<TRIPOS>ATOM
      1 C         139.2654  141.7036  164.6747 C.ar    1  UNL1        0.0681
      2 C         140.1113  141.3465  163.4885 C.ar    1  UNL1        0.0208
      3 C         139.7136  141.8075  162.1177 C.ar    1  UNL1        0.0384
      4 C         138.4700  142.6255  161.9330 C.ar    1  UNL1        0.1386
      5 C         137.6241  142.9826  163.1191 C.ar    1  UNL1        0.0384
      6 C         138.0218  142.5216  164.4900 C.ar    1  UNL1        0.0208
      7 C         138.0161  139.2427  165.8508 C.3     1  UNL1        0.0723
      8 C         139.0385  140.0121  166.6336 C.ar    1  UNL1        0.1268
      9 N         139.4362  139.5510  168.0045 N.ar    1  UNL1       -0.2318
     10 C         140.4586  140.3204  168.7873 C.ar    1  UNL1        0.0872
     11 C         140.8563  139.8594  170.1581 C.ar    1  UNL1        0.0193
     12 C         141.8787  140.6288  170.9409 C.ar    1  UNL1        0.0015
     13 C         142.5033  141.8592  170.3528 C.ar    1  UNL1        0.0003
     14 C         142.1056  142.3203  168.9820 C.ar    1  UNL1        0.0063
     15 C         141.0833  141.5509  168.1993 C.ar    1  UNL1        0.0742
     16 C         140.6855  142.0119  166.8283 C.ar    1  UNL1        0.2669
     17 O         141.3102  143.2424  166.2403 O.2     1  UNL1       -0.2665
     18 N         139.6632  141.2425  166.0456 N.ar    1  UNL1       -0.2626
     19 O         138.0723  143.0866  160.5621 O.3     1  UNL1       -0.4754
     20 C         138.8588  142.6434  159.3642 C.3     1  UNL1        0.2068
     21 C         138.1862  141.8684  158.2701 C.3     1  UNL1        0.0646
     22 C         138.2935  140.3726  158.2355 C.3     1  UNL1        0.0759
     23 N         138.3457  139.5946  159.5168 N.3     1  UNL1       -0.2726
     24 C         139.4798  138.7266  159.9758 C.3     1  UNL1        0.0721
     25 C         139.1081  138.1434  161.3068 C.3     1  UNL1        0.0188
     26 C         137.7441  138.6509  161.6706 C.3     1  UNL1        0.0188
     27 C         137.2730  139.5478  160.5643 C.3     1  UNL1        0.0721
@<TRIPOS>BOND
     1     7     8    1
     2     8     9   ar
     3     9    10   ar
     4    10    11   ar
     5    11    12   ar
     6    12    13   ar
     7    13    14   ar
     8    14    15   ar
     9    15    16   ar
    10    16    17    2
    11    16    18   ar
    12    18     1    1
    13     1     2   ar
    14     2     3   ar
    15     3     4   ar
    16     4    19    1
    17    19    20    1
    18    20    21    1
    19    21    22    1
    20    22    23    1
    21    23    24    1
    22    24    25    1
    23    25    26    1
    24    26    27    1
    25     4     5   ar
    26     5     6   ar
    27    18     8   ar
    28     6     1   ar
    29    15    10   ar
    30    27    23    1
@<TRIPOS>MOLECULE
*****
 27 30 0 0 0
SMALL
GASTEIGER

@<TRIPOS>ATOM
      1 C         138.8656  140.3899  164.8437 C.ar    1  UNL1        0.0681
      2 C         137.7408  141.2239  164.3058 C.ar    1  UNL1        0.0208
      3 C         137.3459  141.1098  162.8632 C.ar    1  UNL1        0.0384
      4 C         138.0758  140.1618  161.9586 C.ar    1  UNL1        0.1386
      5 C         139.2006  139.3278  162.4965 C.ar    1  UNL1        0.0384
      6 C         139.5954  139.4418  163.9391 C.ar    1  UNL1        0.0208
      7 C         137.7560  138.4648  166.8593 C.3     1  UNL1        0.0723
      8 C         138.7056  139.5415  167.2941 C.ar    1  UNL1        0.1268
      9 N         139.1004  139.6555  168.7367 N.ar    1  UNL1       -0.2318
     10 C         140.0501  140.7322  169.1716 C.ar    1  UNL1        0.0872
     11 C         140.4449  140.8462  170.6141 C.ar    1  UNL1        0.0193
     12 C         141.3945  141.9229  171.0489 C.ar    1  UNL1        0.0015
     13 C         141.9493  142.8854  170.0411 C.ar    1  UNL1        0.0003
     14 C         141.5545  142.7714  168.5985 C.ar    1  UNL1        0.0063
     15 C         140.6049  141.6947  168.1638 C.ar    1  UNL1        0.0742
     16 C         140.2100  141.5806  166.7211 C.ar    1  UNL1        0.2669
     17 O         140.7648  142.5432  165.7133 O.2     1  UNL1       -0.2665
     18 N         139.2604  140.5040  166.2863 N.ar    1  UNL1       -0.2626
     19 O         137.6810  140.0477  160.5159 O.3     1  UNL1       -0.4754
     20 C         138.4755  140.7607  159.4623 C.3     1  UNL1        0.2068
     21 C         138.4770  142.2598  159.4101 C.3     1  UNL1        0.0646
     22 C         139.7263  143.0206  159.7421 C.3     1  UNL1        0.0759
     23 N         139.6914  144.1046  160.7782 N.3     1  UNL1       -0.2726
     24 C         140.0997  145.5335  160.5736 C.3     1  UNL1        0.0721
     25 C         139.9026  146.2621  161.8698 C.3     1  UNL1        0.0188
     26 C         139.3725  145.2836  162.8757 C.3     1  UNL1        0.0188
     27 C         139.2420  143.9502  162.2010 C.3     1  UNL1        0.0721
@<TRIPOS>BOND
     1     7     8    1
     2     8     9   ar
     3     9    10   ar
     4    10    11   ar
     5    11    12   ar
     6    12    13   ar
     7    13    14   ar
     8    14    15   ar
     9    15    16   ar
    10    16    17    2
    11    16    18   ar
    12    18     1    1
    13     1     2   ar
    14     2     3   ar
    15     3     4   ar
    16     4    19    1
    17    19    20    1
    18    20    21    1
    19    21    22    1
    20    22    23    1
    21    23    24    1
    22    24    25    1
    23    25    26    1
    24    26    27    1
    25     4     5   ar
    26     5     6   ar
    27    18     8   ar
    28     6     1   ar
    29    15    10   ar
    30    27    23    1
@<TRIPOS>MOLECULE
*****
 27 30 0 0 0
SMALL
GASTEIGER

@<TRIPOS>ATOM
      1 C         138.9852  140.0040  164.7876 C.ar    1  UNL1        0.0681
      2 C         139.2165  138.7302  164.0301 C.ar    1  UNL1        0.0208
      3 C         138.6345  138.5569  162.6585 C.ar    1  UNL1        0.0384
      4 C         137.8211  139.6575  162.0445 C.ar    1  UNL1        0.1386
      5 C         137.5898  140.9313  162.8020 C.ar    1  UNL1        0.0384
      6 C         138.1718  141.1046  164.1736 C.ar    1  UNL1        0.0208
      7 C         137.6687  138.7065  167.1505 C.3     1  UNL1        0.0723
      8 C         138.9090  139.5284  167.3407 C.ar    1  UNL1        0.1268
      9 N         139.4911  139.7016  168.7122 N.ar    1  UNL1       -0.2318
     10 C         140.7314  140.5235  168.9024 C.ar    1  UNL1        0.0872
     11 C         141.3134  140.6967  170.2739 C.ar    1  UNL1        0.0193
     12 C         142.5537  141.5186  170.4640 C.ar    1  UNL1        0.0015
     13 C         143.2119  142.1673  169.2826 C.ar    1  UNL1        0.0003
     14 C         142.6299  141.9942  167.9110 C.ar    1  UNL1        0.0063
     15 C         141.3896  141.1723  167.7209 C.ar    1  UNL1        0.0742
     16 C         140.8075  140.9991  166.3493 C.ar    1  UNL1        0.2669
     17 O         141.4658  141.6478  165.1678 O.2     1  UNL1       -0.2665
     18 N         139.5673  140.1772  166.1592 N.ar    1  UNL1       -0.2626
     19 O         137.2390  139.4843  160.6729 O.3     1  UNL1       -0.4754
     20 C         137.9174  140.1030  159.4867 C.3     1  UNL1        0.2068
     21 C         139.2702  139.6168  159.0584 C.3     1  UNL1        0.0646
     22 C         140.5066  140.3057  159.5552 C.3     1  UNL1        0.0759
     23 N         141.3286  139.6794  160.6424 N.3     1  UNL1       -0.2726
     24 C         141.8732  140.3810  161.8513 C.3     1  UNL1        0.0721
     25 C         142.6315  139.3768  162.6677 C.3     1  UNL1        0.0188
     26 C         142.5556  138.0545  161.9634 C.3     1  UNL1        0.0188
     27 C         141.7504  138.2416  160.7117 C.3     1  UNL1        0.0721
@<TRIPOS>BOND
     1     7     8    1
     2     8     9   ar
     3     9    10   ar
     4    10    11   ar
     5    11    12   ar
     6    12    13   ar
     7    13    14   ar
     8    14    15   ar
     9    15    16   ar
    10    16    17    2
    11    16    18   ar
    12    18     1    1
    13     1     2   ar
    14     2     3   ar
    15     3     4   ar
    16     4    19    1
    17    19    20    1
    18    20    21    1
    19    21    22    1
    20    22    23    1
    21    23    24    1
    22    24    25    1
    23    25    26    1
    24    26    27    1
    25     4     5   ar
    26     5     6   ar
    27    18     8   ar
    28     6     1   ar
    29    15    10   ar
    30    27    23    1
@<TRIPOS>MOLECULE
*****
 27 30 0 0 0
SMALL
GASTEIGER

@<TRIPOS>ATOM
      1 C         141.9849  140.2099  164.3353 C.ar    1  UNL1        0.0681
      2 C         141.3309  140.7055  163.0797 C.ar    1  UNL1        0.0208
      3 C         142.0170  140.5306  161.7573 C.ar    1  UNL1        0.0384
      4 C         143.3571  139.8601  161.6907 C.ar    1  UNL1        0.1386
      5 C         144.0111  139.3645  162.9463 C.ar    1  UNL1        0.0384
      6 C         143.3249  139.5394  164.2686 C.ar    1  UNL1        0.0208
      7 C         139.9089  138.2336  165.2210 C.3     1  UNL1        0.0723
      8 C         140.2607  139.3966  166.1005 C.ar    1  UNL1        0.1268
      9 N         139.5745  139.5715  167.4228 N.ar    1  UNL1       -0.2318
     10 C         139.9263  140.7346  168.3024 C.ar    1  UNL1        0.0872
     11 C         139.2401  140.9094  169.6247 C.ar    1  UNL1        0.0193
     12 C         139.5919  142.0725  170.5042 C.ar    1  UNL1        0.0015
     13 C         140.6299  143.0606  170.0614 C.ar    1  UNL1        0.0003
     14 C         141.3161  142.8858  168.7391 C.ar    1  UNL1        0.0063
     15 C         140.9643  141.7227  167.8596 C.ar    1  UNL1        0.0742
     16 C         141.6505  141.5478  166.5372 C.ar    1  UNL1        0.2669
     17 O         142.6885  142.5360  166.0944 O.2     1  UNL1       -0.2665
     18 N         141.2987  140.3848  165.6577 N.ar    1  UNL1       -0.2626
     19 O         144.0433  139.6852  160.3683 O.3     1  UNL1       -0.4754
     20 C         143.6740  140.5635  159.2097 C.3     1  UNL1        0.2068
     21 C         144.2145  141.9601  159.1252 C.3     1  UNL1        0.0646
     22 C         143.3418  143.1253  159.4866 C.3     1  UNL1        0.0759
     23 N         143.3022  143.6223  160.9013 N.3     1  UNL1       -0.2726
     24 C         142.1697  144.3683  161.5425 C.3     1  UNL1        0.0721
     25 C         142.5557  144.6677  162.9607 C.3     1  UNL1        0.0188
     26 C         143.9269  144.1068  163.1961 C.3     1  UNL1        0.0188
     27 C         144.3883  143.4607  161.9233 C.3     1  UNL1        0.0721
@<TRIPOS>BOND
     1     7     8    1
     2     8     9   ar
     3     9    10   ar
     4    10    11   ar
     5    11    12   ar
     6    12    13   ar
     7    13    14   ar
     8    14    15   ar
     9    15    16   ar
    10    16    17    2
    11    16    18   ar
    12    18     1    1
    13     1     2   ar
    14     2     3   ar
    15     3     4   ar
    16     4    19    1
    17    19    20    1
    18    20    21    1
    19    21    22    1
    20    22    23    1
    21    23    24    1
    22    24    25    1
    23    25    26    1
    24    26    27    1
    25     4     5   ar
    26     5     6   ar
    27    18     8   ar
    28     6     1   ar
    29    15    10   ar
    30    27    23    1
@<TRIPOS>MOLECULE
*****
 27 30 0 0 0
SMALL
GASTEIGER

@<TRIPOS>ATOM
      1 C         138.8896  139.9573  164.9241 C.ar    1  UNL1        0.0681
      2 C         139.3626  138.7385  164.1887 C.ar    1  UNL1        0.0208
      3 C         138.9422  138.5100  162.7672 C.ar    1  UNL1        0.0384
      4 C         138.0487  139.5003  162.0809 C.ar    1  UNL1        0.1386
      5 C         137.5757  140.7191  162.8162 C.ar    1  UNL1        0.0384
      6 C         137.9961  140.9476  164.2378 C.ar    1  UNL1        0.0208
      7 C         137.5439  138.4565  167.1459 C.3     1  UNL1        0.0723
      8 C         138.6372  139.4354  167.4567 C.ar    1  UNL1        0.1268
      9 N         139.0577  139.6639  168.8783 N.ar    1  UNL1       -0.2318
     10 C         140.1510  140.6428  169.1890 C.ar    1  UNL1        0.0872
     11 C         140.5714  140.8713  170.6106 C.ar    1  UNL1        0.0193
     12 C         141.6646  141.8502  170.9212 C.ar    1  UNL1        0.0015
     13 C         142.3374  142.6006  169.8103 C.ar    1  UNL1        0.0003
     14 C         141.9170  142.3722  168.3887 C.ar    1  UNL1        0.0063
     15 C         140.8238  141.3933  168.0780 C.ar    1  UNL1        0.0742
     16 C         140.4033  141.1648  166.6564 C.ar    1  UNL1        0.2669
     17 O         141.0761  141.9152  165.5454 O.2     1  UNL1       -0.2665
     18 N         139.3101  140.1859  166.3457 N.ar    1  UNL1       -0.2626
     19 O         137.6282  139.2717  160.6592 O.3     1  UNL1       -0.4754
     20 C         138.2808  140.0435  159.5508 C.3     1  UNL1        0.2068
     21 C         139.7737  140.1843  159.5128 C.3     1  UNL1        0.0646
     22 C         140.6432  138.9623  159.5413 C.3     1  UNL1        0.0759
     23 N         140.9093  138.2015  158.2763 N.3     1  UNL1       -0.2726
     24 C         142.2511  137.7372  157.7923 C.3     1  UNL1        0.0721
     25 C         142.0514  137.0201  156.4900 C.3     1  UNL1        0.0188
     26 C         140.5863  137.0413  156.1690 C.3     1  UNL1        0.0188
     27 C         139.8804  137.7715  157.2730 C.3     1  UNL1        0.0721
@<TRIPOS>BOND
     1     7     8    1
     2     8     9   ar
     3     9    10   ar
     4    10    11   ar
     5    11    12   ar
     6    12    13   ar
     7    13    14   ar
     8    14    15   ar
     9    15    16   ar
    10    16    17    2
    11    16    18   ar
    12    18     1    1
    13     1     2   ar
    14     2     3   ar
    15     3     4   ar
    16     4    19    1
    17    19    20    1
    18    20    21    1
    19    21    22    1
    20    22    23    1
    21    23    24    1
    22    24    25    1
    23    25    26    1
    24    26    27    1
    25     4     5   ar
    26     5     6   ar
    27    18     8   ar
    28     6     1   ar
    29    15    10   ar
    30    27    23    1
@<TRIPOS>MOLECULE
*****
 27 30 0 0 0
SMALL
GASTEIGER

@<TRIPOS>ATOM
      1 C         141.9390  141.3743  164.4581 C.ar    1  UNL1        0.0681
      2 C         142.8906  142.3600  163.8473 C.ar    1  UNL1        0.0208
      3 C         142.9360  142.5348  162.3583 C.ar    1  UNL1        0.0384
      4 C         142.0298  141.7241  161.4800 C.ar    1  UNL1        0.1386
      5 C         141.0782  140.7384  162.0907 C.ar    1  UNL1        0.0384
      6 C         141.0328  140.5636  163.5798 C.ar    1  UNL1        0.0208
      7 C         143.4553  139.1323  165.7520 C.3     1  UNL1        0.0723
      8 C         142.6518  140.0785  166.5942 C.ar    1  UNL1        0.1268
      9 N         142.6064  139.9037  168.0832 N.ar    1  UNL1       -0.2318
     10 C         141.8029  140.8498  168.9254 C.ar    1  UNL1        0.0872
     11 C         141.7576  140.6750  170.4144 C.ar    1  UNL1        0.0193
     12 C         140.9541  141.6211  171.2565 C.ar    1  UNL1        0.0015
     13 C         140.1959  142.7421  170.6096 C.ar    1  UNL1        0.0003
     14 C         140.2413  142.9170  169.1205 C.ar    1  UNL1        0.0063
     15 C         141.0448  141.9708  168.2784 C.ar    1  UNL1        0.0742
     16 C         141.0901  142.1457  166.7893 C.ar    1  UNL1        0.2669
     17 O         140.3320  143.2667  166.1423 O.2     1  UNL1       -0.2665
     18 N         141.8936  141.1995  165.9472 N.ar    1  UNL1       -0.2626
     19 O         142.0752  141.8989  159.9908 O.3     1  UNL1       -0.4754
     20 C         142.4225  143.2344  159.4027 C.3     1  UNL1        0.2068
     21 C         141.4088  144.3400  159.4020 C.3     1  UNL1        0.0646
     22 C         139.9451  144.0157  159.4515 C.3     1  UNL1        0.0759
     23 N         139.2653  143.8168  160.7736 N.3     1  UNL1       -0.2726
     24 C         139.4788  144.6422  162.0079 C.3     1  UNL1        0.0721
     25 C         138.5981  144.0932  163.0908 C.3     1  UNL1        0.0188
     26 C         137.8401  142.9285  162.5260 C.3     1  UNL1        0.0188
     27 C         138.2525  142.7577  161.0939 C.3     1  UNL1        0.0721
@<TRIPOS>BOND
     1     7     8    1
     2     8     9   ar
     3     9    10   ar
     4    10    11   ar
     5    11    12   ar
     6    12    13   ar
     7    13    14   ar
     8    14    15   ar
     9    15    16   ar
    10    16    17    2
    11    16    18   ar
    12    18     1    1
    13     1     2   ar
    14     2     3   ar
    15     3     4   ar
    16     4    19    1
    17    19    20    1
    18    20    21    1
    19    21    22    1
    20    22    23    1
    21    23    24    1
    22    24    25    1
    23    25    26    1
    24    26    27    1
    25     4     5   ar
    26     5     6   ar
    27    18     8   ar
    28     6     1   ar
    29    15    10   ar
    30    27    23    1
