@<TRIPOS>MOLECULE
*****
 33 35 0 0 0
SMALL
GASTEIGER

@<TRIPOS>ATOM
      1 N         140.3106  139.1916  161.8173 N.3     1  UNL1       -0.2682
      2 C         139.8267  138.4835  163.0480 C.3     1  UNL1        0.0897
      3 C         140.7281  138.3498  164.2395 C.3     1  UNL1        0.0900
      4 N         142.1132  138.9241  164.2004 N.3     1  UNL1       -0.2626
      5 C         142.5971  139.6321  162.9697 C.3     1  UNL1        0.0900
      6 C         141.6958  139.7659  161.7782 C.3     1  UNL1        0.0897
      7 C         139.4093  139.3253  160.6258 C.3     1  UNL1        0.1056
      8 C         138.2148  140.2304  160.6868 C.3     1  UNL1        0.1700
      9 O         136.8397  139.6488  160.8313 O.3     1  UNL1       -0.3793
     10 H         136.1863  140.3654  160.8546 H       1  UNL1        0.2106
     11 C         138.3952  141.7173  160.6035 C.3     1  UNL1        0.2359
     12 O         137.6613  142.6163  161.5537 O.3     1  UNL1       -0.4697
     13 C         138.7150  144.3735  163.1513 C.ar    1  UNL1        0.1724
     14 C         139.3260  144.7238  164.4756 C.ar    1  UNL1        0.0400
     15 C         139.4944  143.6671  165.5268 C.ar    1  UNL1        0.0033
     16 C         139.0517  142.2602  165.2537 C.ar    1  UNL1        0.0033
     17 C         138.4407  141.9100  163.9294 C.ar    1  UNL1        0.0400
     18 C         138.2724  142.9666  162.8781 C.ar    1  UNL1        0.1723
     19 C         139.7333  146.2205  161.6342 C.3     1  UNL1        0.2526
     20 O         138.5466  145.4302  162.1000 O.3     1  UNL1       -0.4684
     21 C         143.0145  138.7903  165.3919 C.3     1  UNL1        0.1588
     22 C         142.5997  139.3643  166.7142 C.2     1  UNL1        0.2425
     23 O         143.1314  138.7756  167.9873 O.2     1  UNL1       -0.2733
     24 N         141.6532  140.5270  166.7635 N.am    1  UNL1       -0.2833
     25 H         141.3043  140.9134  165.9279 H       1  UNL1        0.1549
     26 C         141.2385  141.1010  168.0858 C.ar    1  UNL1        0.0423
     27 C         139.9288  140.7021  168.6989 C.ar    1  UNL1       -0.0087
     28 C         139.0341  139.7293  167.9897 C.3     1  UNL1        0.0323
     29 C         139.5141  141.2760  170.0212 C.ar    1  UNL1       -0.0031
     30 C         140.4089  142.2489  170.7304 C.ar    1  UNL1       -0.0006
     31 C         141.7185  142.6477  170.1173 C.ar    1  UNL1       -0.0031
     32 C         142.1332  142.0738  168.7950 C.ar    1  UNL1       -0.0087
     33 C         143.4429  142.4727  168.1818 C.3     1  UNL1        0.0323
@<TRIPOS>BOND
     1    19    20    1
     2    20    13    1
     3    13    14   ar
     4    14    15   ar
     5    15    16   ar
     6    16    17   ar
     7    17    18   ar
     8    18    12    1
     9    12    11    1
    10    11     8    1
    11     8     9    1
    12     8     7    1
    13     7     1    1
    14     1     2    1
    15     2     3    1
    16     3     4    1
    17     4    21    1
    18    21    22    1
    19    22    23    2
    20    22    24   am
    21    24    26    1
    22    26    27   ar
    23    27    28    1
    24    27    29   ar
    25    29    30   ar
    26    30    31   ar
    27    31    32   ar
    28    32    33    1
    29     4     5    1
    30     5     6    1
    31    18    13   ar
    32     6     1    1
    33    32    26   ar
    34     9    10    1
    35    24    25    1
@<TRIPOS>MOLECULE
*****
 33 35 0 0 0
SMALL
GASTEIGER

@<TRIPOS>ATOM
      1 N         140.2137  139.0925  159.4248 N.3     1  UNL1       -0.2682
      2 C         139.2107  138.3424  160.2503 C.3     1  UNL1        0.0897
      3 C         138.3699  139.0728  161.2552 C.3     1  UNL1        0.0900
      4 N         138.5321  140.5531  161.4345 N.3     1  UNL1       -0.2626
      5 C         139.5351  141.3032  160.6090 C.3     1  UNL1        0.0900
      6 C         140.3758  140.5729  159.6042 C.3     1  UNL1        0.0897
      7 C         141.0544  138.3622  158.4200 C.3     1  UNL1        0.1056
      8 C         142.5089  138.1190  158.6943 C.3     1  UNL1        0.1700
      9 O         143.5106  138.2309  157.5834 O.3     1  UNL1       -0.3793
     10 H         144.3979  138.0444  157.9280 H       1  UNL1        0.2106
     11 C         142.9618  137.7638  160.0795 C.3     1  UNL1        0.2359
     12 O         143.2914  138.8483  161.0619 O.3     1  UNL1       -0.4697
     13 C         143.8333  139.3250  163.5578 C.ar    1  UNL1        0.1724
     14 C         143.5222  139.1384  165.0132 C.ar    1  UNL1        0.0400
     15 C         142.3579  138.2885  165.4283 C.ar    1  UNL1        0.0033
     16 C         141.5049  137.6252  164.3880 C.ar    1  UNL1        0.0033
     17 C         141.8160  137.8118  162.9326 C.ar    1  UNL1        0.0400
     18 C         142.9803  138.6617  162.5175 C.ar    1  UNL1        0.1723
     19 C         145.3708  141.3821  163.9509 C.3     1  UNL1        0.2526
     20 O         144.9975  140.1749  163.1427 O.3     1  UNL1       -0.4684
     21 C         137.6913  141.2834  162.4394 C.3     1  UNL1        0.1588
     22 C         138.1756  141.4400  163.8504 C.2     1  UNL1        0.2425
     23 O         137.6061  142.5186  164.7234 O.2     1  UNL1       -0.2733
     24 N         139.2294  140.5180  164.3883 N.am    1  UNL1       -0.2833
     25 H         139.6032  139.8100  163.8153 H       1  UNL1        0.1549
     26 C         139.7137  140.6746  165.7993 C.ar    1  UNL1        0.0423
     27 C         139.1067  139.8512  166.8964 C.ar    1  UNL1       -0.0087
     28 C         138.0154  138.8712  166.5824 C.3     1  UNL1        0.0323
     29 C         139.5910  140.0078  168.3074 C.ar    1  UNL1       -0.0031
     30 C         140.6824  140.9878  168.6213 C.ar    1  UNL1       -0.0006
     31 C         141.2894  141.8112  167.5242 C.ar    1  UNL1       -0.0031
     32 C         140.8051  141.6546  166.1132 C.ar    1  UNL1       -0.0087
     33 C         141.4121  142.4780  165.0162 C.3     1  UNL1        0.0323
@<TRIPOS>BOND
     1    19    20    1
     2    20    13    1
     3    13    14   ar
     4    14    15   ar
     5    15    16   ar
     6    16    17   ar
     7    17    18   ar
     8    18    12    1
     9    12    11    1
    10    11     8    1
    11     8     9    1
    12     8     7    1
    13     7     1    1
    14     1     2    1
    15     2     3    1
    16     3     4    1
    17     4    21    1
    18    21    22    1
    19    22    23    2
    20    22    24   am
    21    24    26    1
    22    26    27   ar
    23    27    28    1
    24    27    29   ar
    25    29    30   ar
    26    30    31   ar
    27    31    32   ar
    28    32    33    1
    29     4     5    1
    30     5     6    1
    31    18    13   ar
    32     6     1    1
    33    32    26   ar
    34     9    10    1
    35    24    25    1
@<TRIPOS>MOLECULE
*****
 33 35 0 0 0
SMALL
GASTEIGER

@<TRIPOS>ATOM
      1 N         141.6378  138.4423  162.2696 N.3     1  UNL1       -0.2682
      2 C         140.9303  137.7325  163.3857 C.3     1  UNL1        0.0897
      3 C         141.5398  137.6946  164.7558 C.3     1  UNL1        0.0900
      4 N         142.8566  138.3664  165.0098 N.3     1  UNL1       -0.2626
      5 C         143.5641  139.0761  163.8937 C.3     1  UNL1        0.0900
      6 C         142.9547  139.1141  162.5236 C.3     1  UNL1        0.0897
      7 C         141.0284  138.4803  160.8995 C.3     1  UNL1        0.1056
      8 C         140.2955  139.7051  160.4384 C.3     1  UNL1        0.1700
      9 O         140.2402  140.0405  158.9774 O.3     1  UNL1       -0.3793
     10 H         139.7318  140.8570  158.8521 H       1  UNL1        0.2106
     11 C         139.6179  140.5946  161.4383 C.3     1  UNL1        0.2359
     12 O         140.4271  141.5585  162.2543 O.3     1  UNL1       -0.4697
     13 C         140.3193  142.8234  164.5212 C.ar    1  UNL1        0.1724
     14 C         139.6318  143.7926  165.4365 C.ar    1  UNL1        0.0400
     15 C         138.3646  144.4663  165.0004 C.ar    1  UNL1        0.0033
     16 C         137.7848  144.1707  163.6489 C.ar    1  UNL1        0.0033
     17 C         138.4723  143.2015  162.7336 C.ar    1  UNL1        0.0400
     18 C         139.7396  142.5278  163.1697 C.ar    1  UNL1        0.1723
     19 C         142.9148  142.7589  164.6187 C.3     1  UNL1        0.2526
     20 O         141.5866  142.1497  164.9573 O.3     1  UNL1       -0.4684
     21 C         143.4660  138.3284  166.3799 C.3     1  UNL1        0.1588
     22 C         142.8565  139.1264  167.4942 C.2     1  UNL1        0.2425
     23 O         143.1130  138.7400  168.9207 O.2     1  UNL1       -0.2733
     24 N         141.9905  140.3107  167.1820 N.am    1  UNL1       -0.2833
     25 H         141.8221  140.5643  166.2457 H       1  UNL1        0.1549
     26 C         141.3810  141.1087  168.2963 C.ar    1  UNL1        0.0423
     27 C         139.9809  140.8169  168.7491 C.ar    1  UNL1       -0.0087
     28 C         139.1905  139.7272  168.0875 C.3     1  UNL1        0.0323
     29 C         139.3714  141.6149  169.8634 C.ar    1  UNL1       -0.0031
     30 C         140.1620  142.7046  170.5250 C.ar    1  UNL1       -0.0006
     31 C         141.5619  142.9963  170.0723 C.ar    1  UNL1       -0.0031
     32 C         142.1714  142.1984  168.9579 C.ar    1  UNL1       -0.0087
     33 C         143.5714  142.4901  168.5052 C.3     1  UNL1        0.0323
@<TRIPOS>BOND
     1    19    20    1
     2    20    13    1
     3    13    14   ar
     4    14    15   ar
     5    15    16   ar
     6    16    17   ar
     7    17    18   ar
     8    18    12    1
     9    12    11    1
    10    11     8    1
    11     8     9    1
    12     8     7    1
    13     7     1    1
    14     1     2    1
    15     2     3    1
    16     3     4    1
    17     4    21    1
    18    21    22    1
    19    22    23    2
    20    22    24   am
    21    24    26    1
    22    26    27   ar
    23    27    28    1
    24    27    29   ar
    25    29    30   ar
    26    30    31   ar
    27    31    32   ar
    28    32    33    1
    29     4     5    1
    30     5     6    1
    31    18    13   ar
    32     6     1    1
    33    32    26   ar
    34     9    10    1
    35    24    25    1
@<TRIPOS>MOLECULE
*****
 33 35 0 0 0
SMALL
GASTEIGER

@<TRIPOS>ATOM
      1 N         138.8075  139.5166  160.4267 N.3     1  UNL1       -0.2682
      2 C         138.0795  139.0717  161.6604 C.3     1  UNL1        0.0897
      3 C         138.8358  138.4366  162.7896 C.3     1  UNL1        0.0900
      4 N         140.3200  138.2465  162.6849 N.3     1  UNL1       -0.2626
      5 C         141.0480  138.6913  161.4512 C.3     1  UNL1        0.0900
      6 C         140.2918  139.3264  160.3221 C.3     1  UNL1        0.0897
      7 C         138.0513  140.1516  159.2976 C.3     1  UNL1        0.1056
      8 C         138.1642  141.6276  159.0559 C.3     1  UNL1        0.1700
      9 O         137.8206  142.1958  157.7109 O.3     1  UNL1       -0.3793
     10 H         137.9469  143.1575  157.7242 H       1  UNL1        0.2106
     11 C         138.6209  142.5356  160.1592 C.3     1  UNL1        0.2359
     12 O         137.6640  142.9420  161.2405 O.3     1  UNL1       -0.4697
     13 C         138.7326  144.5601  162.9696 C.ar    1  UNL1        0.1724
     14 C         139.2382  144.8308  164.3556 C.ar    1  UNL1        0.0400
     15 C         139.1806  143.7543  165.3986 C.ar    1  UNL1        0.0033
     16 C         138.6175  142.4070  165.0555 C.ar    1  UNL1        0.0033
     17 C         138.1120  142.1363  163.6695 C.ar    1  UNL1        0.0400
     18 C         138.1695  143.2128  162.6266 C.ar    1  UNL1        0.1723
     19 C         140.0815  145.9300  161.2221 C.3     1  UNL1        0.2526
     20 O         138.7902  145.6366  161.9266 O.3     1  UNL1       -0.4684
     21 C         141.0762  137.6114  163.8140 C.3     1  UNL1        0.1588
     22 C         141.5840  138.4557  164.9451 C.2     1  UNL1        0.2425
     23 O         142.7213  137.9681  165.7930 O.2     1  UNL1       -0.2733
     24 N         140.9546  139.7875  165.2282 N.am    1  UNL1       -0.2833
     25 H         140.2082  140.1075  164.6717 H       1  UNL1        0.1549
     26 C         141.4625  140.6317  166.3593 C.ar    1  UNL1        0.0423
     27 C         142.7158  141.4382  166.1892 C.ar    1  UNL1       -0.0087
     28 C         143.4612  141.4004  164.8881 C.3     1  UNL1        0.0323
     29 C         143.2237  142.2824  167.3203 C.ar    1  UNL1       -0.0031
     30 C         142.4782  142.3202  168.6215 C.ar    1  UNL1       -0.0006
     31 C         141.2249  141.5138  168.7915 C.ar    1  UNL1       -0.0031
     32 C         140.7171  140.6696  167.6604 C.ar    1  UNL1       -0.0087
     33 C         139.4637  139.8631  167.8304 C.3     1  UNL1        0.0323
@<TRIPOS>BOND
     1    19    20    1
     2    20    13    1
     3    13    14   ar
     4    14    15   ar
     5    15    16   ar
     6    16    17   ar
     7    17    18   ar
     8    18    12    1
     9    12    11    1
    10    11     8    1
    11     8     9    1
    12     8     7    1
    13     7     1    1
    14     1     2    1
    15     2     3    1
    16     3     4    1
    17     4    21    1
    18    21    22    1
    19    22    23    2
    20    22    24   am
    21    24    26    1
    22    26    27   ar
    23    27    28    1
    24    27    29   ar
    25    29    30   ar
    26    30    31   ar
    27    31    32   ar
    28    32    33    1
    29     4     5    1
    30     5     6    1
    31    18    13   ar
    32     6     1    1
    33    32    26   ar
    34     9    10    1
    35    24    25    1
@<TRIPOS>MOLECULE
*****
 33 35 0 0 0
SMALL
GASTEIGER

@<TRIPOS>ATOM
      1 N         142.6957  143.0629  160.1509 N.3     1  UNL1       -0.2682
      2 C         142.8240  143.6756  161.5140 C.3     1  UNL1        0.0897
      3 C         143.1861  142.8183  162.6905 C.3     1  UNL1        0.0900
      4 N         143.4197  141.3485  162.5039 N.3     1  UNL1       -0.2626
      5 C         143.2914  140.7358  161.1407 C.3     1  UNL1        0.0900
      6 C         142.9294  141.5930  159.9642 C.3     1  UNL1        0.0897
      7 C         142.3337  143.9201  158.9744 C.3     1  UNL1        0.1056
      8 C         140.9544  144.4993  158.8646 C.3     1  UNL1        0.1700
      9 O         140.7530  145.8404  158.2237 O.3     1  UNL1       -0.3793
     10 H         139.8094  146.0651  158.2339 H       1  UNL1        0.2106
     11 C         139.7765  143.7373  159.3958 C.3     1  UNL1        0.2359
     12 O         139.1824  144.1047  160.7232 O.3     1  UNL1       -0.4697
     13 C         138.2942  143.3401  163.0420 C.ar    1  UNL1        0.1724
     14 C         137.7106  142.2755  163.9229 C.ar    1  UNL1        0.0400
     15 C         137.4317  140.9109  163.3660 C.ar    1  UNL1        0.0033
     16 C         137.7363  140.6109  161.9283 C.ar    1  UNL1        0.0033
     17 C         138.3199  141.6755  161.0474 C.ar    1  UNL1        0.0400
     18 C         138.5988  143.0401  161.6042 C.ar    1  UNL1        0.1723
     19 C         138.7988  144.8823  165.0710 C.3     1  UNL1        0.2526
     20 O         138.5731  144.7047  163.5988 O.3     1  UNL1       -0.4684
     21 C         143.7818  140.4913  163.6803 C.3     1  UNL1        0.1588
     22 C         142.7042  139.8180  164.4776 C.2     1  UNL1        0.2425
     23 O         143.0679  138.8288  165.5449 O.2     1  UNL1       -0.2733
     24 N         141.2629  140.1340  164.2075 N.am    1  UNL1       -0.2833
     25 H         141.0242  140.7833  163.5070 H       1  UNL1        0.1549
     26 C         140.1854  139.4607  165.0048 C.ar    1  UNL1        0.0423
     27 C         139.6717  140.0995  166.2611 C.ar    1  UNL1       -0.0087
     28 C         140.2356  141.4115  166.7201 C.3     1  UNL1        0.0323
     29 C         138.5942  139.4262  167.0583 C.ar    1  UNL1       -0.0031
     30 C         138.0303  138.1142  166.5993 C.ar    1  UNL1       -0.0006
     31 C         138.5439  137.4755  165.3431 C.ar    1  UNL1       -0.0031
     32 C         139.6215  138.1488  164.5458 C.ar    1  UNL1       -0.0087
     33 C         140.1351  137.5100  163.2895 C.3     1  UNL1        0.0323
@<TRIPOS>BOND
     1    19    20    1
     2    20    13    1
     3    13    14   ar
     4    14    15   ar
     5    15    16   ar
     6    16    17   ar
     7    17    18   ar
     8    18    12    1
     9    12    11    1
    10    11     8    1
    11     8     9    1
    12     8     7    1
    13     7     1    1
    14     1     2    1
    15     2     3    1
    16     3     4    1
    17     4    21    1
    18    21    22    1
    19    22    23    2
    20    22    24   am
    21    24    26    1
    22    26    27   ar
    23    27    28    1
    24    27    29   ar
    25    29    30   ar
    26    30    31   ar
    27    31    32   ar
    28    32    33    1
    29     4     5    1
    30     5     6    1
    31    18    13   ar
    32     6     1    1
    33    32    26   ar
    34     9    10    1
    35    24    25    1
@<TRIPOS>MOLECULE
*****
 33 35 0 0 0
SMALL
GASTEIGER

@<TRIPOS>ATOM
      1 N         139.6175  138.9795  159.9691 N.3     1  UNL1       -0.2682
      2 C         141.0995  138.9623  160.2007 C.3     1  UNL1        0.0897
      3 C         141.6520  138.4111  161.4817 C.3     1  UNL1        0.0900
      4 N         140.7226  137.8772  162.5311 N.3     1  UNL1       -0.2626
      5 C         139.2407  137.8944  162.2994 C.3     1  UNL1        0.0900
      6 C         138.6882  138.4455  161.0185 C.3     1  UNL1        0.0897
      7 C         139.0650  139.5306  158.6881 C.3     1  UNL1        0.1056
      8 C         138.5421  140.9357  158.6401 C.3     1  UNL1        0.1700
      9 O         137.4510  141.2974  157.6764 O.3     1  UNL1       -0.3793
     10 H         137.2318  142.2372  157.7740 H       1  UNL1        0.2106
     11 C         139.1104  141.9792  159.5557 C.3     1  UNL1        0.2359
     12 O         138.1925  142.8875  160.3188 O.3     1  UNL1       -0.4697
     13 C         138.3297  144.0681  162.6292 C.ar    1  UNL1        0.1724
     14 C         138.2832  144.0012  164.1269 C.ar    1  UNL1        0.0400
     15 C         138.0529  142.6869  164.8122 C.ar    1  UNL1        0.0033
     16 C         137.8691  141.4395  163.9997 C.ar    1  UNL1        0.0033
     17 C         137.9157  141.5064  162.5019 C.ar    1  UNL1        0.0400
     18 C         138.1460  142.8207  161.8167 C.ar    1  UNL1        0.1723
     19 C         139.9587  145.8555  161.6797 C.3     1  UNL1        0.2526
     20 O         138.5600  145.3824  161.9439 O.3     1  UNL1       -0.4684
     21 C         141.2752  137.3260  163.8120 C.3     1  UNL1        0.1588
     22 C         141.6808  138.2571  164.9159 C.2     1  UNL1        0.2425
     23 O         142.7692  137.8612  165.8691 O.2     1  UNL1       -0.2733
     24 N         140.9978  139.5841  165.0667 N.am    1  UNL1       -0.2833
     25 H         140.2835  139.8440  164.4411 H       1  UNL1        0.1549
     26 C         141.4034  140.5152  166.1706 C.ar    1  UNL1        0.0423
     27 C         140.5568  140.6305  167.4035 C.ar    1  UNL1       -0.0087
     28 C         139.3047  139.8147  167.5324 C.3     1  UNL1        0.0323
     29 C         140.9624  141.5615  168.5074 C.ar    1  UNL1       -0.0031
     30 C         142.2146  142.3773  168.3784 C.ar    1  UNL1       -0.0006
     31 C         143.0611  142.2620  167.1455 C.ar    1  UNL1       -0.0031
     32 C         142.6555  141.3309  166.0416 C.ar    1  UNL1       -0.0087
     33 C         143.5022  141.2157  164.8087 C.3     1  UNL1        0.0323
@<TRIPOS>BOND
     1    19    20    1
     2    20    13    1
     3    13    14   ar
     4    14    15   ar
     5    15    16   ar
     6    16    17   ar
     7    17    18   ar
     8    18    12    1
     9    12    11    1
    10    11     8    1
    11     8     9    1
    12     8     7    1
    13     7     1    1
    14     1     2    1
    15     2     3    1
    16     3     4    1
    17     4    21    1
    18    21    22    1
    19    22    23    2
    20    22    24   am
    21    24    26    1
    22    26    27   ar
    23    27    28    1
    24    27    29   ar
    25    29    30   ar
    26    30    31   ar
    27    31    32   ar
    28    32    33    1
    29     4     5    1
    30     5     6    1
    31    18    13   ar
    32     6     1    1
    33    32    26   ar
    34     9    10    1
    35    24    25    1
@<TRIPOS>MOLECULE
*****
 33 35 0 0 0
SMALL
GASTEIGER

@<TRIPOS>ATOM
      1 N         144.3516  141.7775  160.4025 N.3     1  UNL1       -0.2682
      2 C         144.8310  142.4470  161.6563 C.3     1  UNL1        0.0897
      3 C         144.8899  141.6770  162.9423 C.3     1  UNL1        0.0900
      4 N         144.4693  140.2376  162.9745 N.3     1  UNL1       -0.2626
      5 C         143.9899  139.5680  161.7207 C.3     1  UNL1        0.0900
      6 C         143.9310  140.3380  160.4348 C.3     1  UNL1        0.0897
      7 C         144.2928  142.5474  159.1166 C.3     1  UNL1        0.1056
      8 C         143.0916  143.3883  158.8002 C.3     1  UNL1        0.1700
      9 O         143.1972  144.5003  157.7990 O.3     1  UNL1       -0.3793
     10 H         142.3372  144.9405  157.7129 H       1  UNL1        0.2106
     11 C         141.7849  143.1172  159.4851 C.3     1  UNL1        0.2359
     12 O         141.5525  143.6142  160.8811 O.3     1  UNL1       -0.4697
     13 C         139.7799  143.7788  162.7735 C.ar    1  UNL1        0.1724
     14 C         138.7363  143.1326  163.6356 C.ar    1  UNL1        0.0400
     15 C         138.4216  141.6757  163.4675 C.ar    1  UNL1        0.0033
     16 C         139.1505  140.8649  162.4374 C.ar    1  UNL1        0.0033
     17 C         140.1941  141.5110  161.5753 C.ar    1  UNL1        0.0400
     18 C         140.5088  142.9680  161.7433 C.ar    1  UNL1        0.1723
     19 C         139.6983  146.2162  161.8778 C.3     1  UNL1        0.2526
     20 O         140.0946  145.2357  162.9415 O.3     1  UNL1       -0.4684
     21 C         144.5281  139.4677  164.2605 C.3     1  UNL1        0.1588
     22 C         143.2596  139.0408  164.9378 C.2     1  UNL1        0.2425
     23 O         143.3014  138.0120  166.0285 O.2     1  UNL1       -0.2733
     24 N         141.9494  139.6429  164.5243 N.am    1  UNL1       -0.2833
     25 H         141.9220  140.3181  163.8084 H       1  UNL1        0.1549
     26 C         140.6809  139.2160  165.2016 C.ar    1  UNL1        0.0423
     27 C         139.9450  138.0013  164.7189 C.ar    1  UNL1       -0.0087
     28 C         140.4775  137.2136  163.5588 C.3     1  UNL1        0.0323
     29 C         138.6765  137.5745  165.3962 C.ar    1  UNL1       -0.0031
     30 C         138.1440  138.3624  166.5563 C.ar    1  UNL1       -0.0006
     31 C         138.8799  139.5770  167.0390 C.ar    1  UNL1       -0.0031
     32 C         140.1484  140.0038  166.3617 C.ar    1  UNL1       -0.0087
     33 C         140.8843  141.2185  166.8445 C.3     1  UNL1        0.0323
@<TRIPOS>BOND
     1    19    20    1
     2    20    13    1
     3    13    14   ar
     4    14    15   ar
     5    15    16   ar
     6    16    17   ar
     7    17    18   ar
     8    18    12    1
     9    12    11    1
    10    11     8    1
    11     8     9    1
    12     8     7    1
    13     7     1    1
    14     1     2    1
    15     2     3    1
    16     3     4    1
    17     4    21    1
    18    21    22    1
    19    22    23    2
    20    22    24   am
    21    24    26    1
    22    26    27   ar
    23    27    28    1
    24    27    29   ar
    25    29    30   ar
    26    30    31   ar
    27    31    32   ar
    28    32    33    1
    29     4     5    1
    30     5     6    1
    31    18    13   ar
    32     6     1    1
    33    32    26   ar
    34     9    10    1
    35    24    25    1
@<TRIPOS>MOLECULE
*****
 33 35 0 0 0
SMALL
GASTEIGER

@<TRIPOS>ATOM
      1 N         141.6435  140.5227  160.2433 N.3     1  UNL1       -0.2682
      2 C         141.1785  141.8379  160.7947 C.3     1  UNL1        0.0897
      3 C         141.8932  142.4580  161.9587 C.3     1  UNL1        0.0900
      4 N         143.0728  141.7628  162.5712 N.3     1  UNL1       -0.2626
      5 C         143.5378  140.4476  162.0198 C.3     1  UNL1        0.0900
      6 C         142.8232  139.8275  160.8559 C.3     1  UNL1        0.0897
      7 C         140.9288  139.9026  159.0794 C.3     1  UNL1        0.1056
      8 C         139.5642  139.3089  159.2671 C.3     1  UNL1        0.1700
      9 O         138.5037  139.5233  158.2282 O.3     1  UNL1       -0.3793
     10 H         137.6877  139.0760  158.5021 H       1  UNL1        0.2106
     11 C         139.2601  138.5007  160.4937 C.3     1  UNL1        0.2359
     12 O         138.1497  138.9191  161.4112 O.3     1  UNL1       -0.4697
     13 C         138.0016  140.1189  163.7109 C.ar    1  UNL1        0.1724
     14 C         138.2127  140.1114  165.1959 C.ar    1  UNL1        0.0400
     15 C         138.7831  138.8968  165.8663 C.ar    1  UNL1        0.0033
     16 C         139.1423  137.6897  165.0517 C.ar    1  UNL1        0.0033
     17 C         138.9312  137.6971  163.5666 C.ar    1  UNL1        0.0400
     18 C         138.3608  138.9117  162.8963 C.ar    1  UNL1        0.1723
     19 C         137.6547  142.6925  163.6346 C.3     1  UNL1        0.2526
     20 O         137.4312  141.3335  163.0405 O.3     1  UNL1       -0.4684
     21 C         143.7874  142.3829  163.7351 C.3     1  UNL1        0.1588
     22 C         143.2980  142.1393  165.1319 C.2     1  UNL1        0.2425
     23 O         143.9277  142.8642  166.2844 O.2     1  UNL1       -0.2733
     24 N         142.1789  141.1709  165.3763 N.am    1  UNL1       -0.2833
     25 H         141.7656  140.6951  164.6199 H       1  UNL1        0.1549
     26 C         141.6895  140.9273  166.7732 C.ar    1  UNL1        0.0423
     27 C         140.6886  141.8587  167.3903 C.ar    1  UNL1       -0.0087
     28 C         140.1772  143.0337  166.6106 C.3     1  UNL1        0.0323
     29 C         140.1992  141.6151  168.7871 C.ar    1  UNL1       -0.0031
     30 C         140.7106  140.4401  169.5668 C.ar    1  UNL1       -0.0006
     31 C         141.7114  139.5088  168.9497 C.ar    1  UNL1       -0.0031
     32 C         142.2008  139.7523  167.5528 C.ar    1  UNL1       -0.0087
     33 C         143.2017  138.8209  166.9357 C.3     1  UNL1        0.0323
@<TRIPOS>BOND
     1    19    20    1
     2    20    13    1
     3    13    14   ar
     4    14    15   ar
     5    15    16   ar
     6    16    17   ar
     7    17    18   ar
     8    18    12    1
     9    12    11    1
    10    11     8    1
    11     8     9    1
    12     8     7    1
    13     7     1    1
    14     1     2    1
    15     2     3    1
    16     3     4    1
    17     4    21    1
    18    21    22    1
    19    22    23    2
    20    22    24   am
    21    24    26    1
    22    26    27   ar
    23    27    28    1
    24    27    29   ar
    25    29    30   ar
    26    30    31   ar
    27    31    32   ar
    28    32    33    1
    29     4     5    1
    30     5     6    1
    31    18    13   ar
    32     6     1    1
    33    32    26   ar
    34     9    10    1
    35    24    25    1
@<TRIPOS>MOLECULE
*****
 33 35 0 0 0
SMALL
GASTEIGER

@<TRIPOS>ATOM
      1 N         142.4763  139.7055  161.8987 N.3     1  UNL1       -0.2682
      2 C         141.5642  138.7856  162.6550 C.3     1  UNL1        0.0897
      3 C         141.9052  138.3778  164.0577 C.3     1  UNL1        0.0900
      4 N         143.1582  138.8898  164.7040 N.3     1  UNL1       -0.2626
      5 C         144.0703  139.8096  163.9477 C.3     1  UNL1        0.0900
      6 C         143.7294  140.2174  162.5451 C.3     1  UNL1        0.0897
      7 C         142.1354  140.1133  160.4961 C.3     1  UNL1        0.1056
      8 C         142.3236  141.5368  160.0623 C.3     1  UNL1        0.1700
      9 O         143.4475  141.8963  159.1362 O.3     1  UNL1       -0.3793
     10 H         143.4266  142.8494  158.9571 H       1  UNL1        0.2106
     11 C         141.3879  142.6009  160.5545 C.3     1  UNL1        0.2359
     12 O         141.4326  143.0334  161.9901 O.3     1  UNL1       -0.4697
     13 C         139.0576  143.8809  162.6156 C.ar    1  UNL1        0.1724
     14 C         137.8263  143.7843  163.4668 C.ar    1  UNL1        0.0400
     15 C         137.7385  142.7437  164.5435 C.ar    1  UNL1        0.0033
     16 C         138.8821  141.7996  164.7691 C.ar    1  UNL1        0.0033
     17 C         140.1134  141.8962  163.9179 C.ar    1  UNL1        0.0400
     18 C         140.2012  142.9368  162.8412 C.ar    1  UNL1        0.1723
     19 C         139.8102  146.2367  161.8193 C.3     1  UNL1        0.2526
     20 O         139.1454  144.9216  161.5389 O.3     1  UNL1       -0.4684
     21 C         143.4992  138.4819  166.1066 C.3     1  UNL1        0.1588
     22 C         142.8705  139.1928  167.2683 C.2     1  UNL1        0.2425
     23 O         143.0908  138.6896  168.6640 O.2     1  UNL1       -0.2733
     24 N         142.0215  140.4071  167.0341 N.am    1  UNL1       -0.2833
     25 H         141.8768  140.7374  166.1180 H       1  UNL1        0.1549
     26 C         141.3928  141.1180  168.1957 C.ar    1  UNL1        0.0423
     27 C         139.9884  140.7875  168.6064 C.ar    1  UNL1       -0.0087
     28 C         139.2128  139.7461  167.8555 C.3     1  UNL1        0.0323
     29 C         139.3597  141.4984  169.7680 C.ar    1  UNL1       -0.0031
     30 C         140.1354  142.5399  170.5189 C.ar    1  UNL1       -0.0006
     31 C         141.5397  142.8704  170.1082 C.ar    1  UNL1       -0.0031
     32 C         142.1684  142.1594  168.9466 C.ar    1  UNL1       -0.0087
     33 C         143.5727  142.4900  168.5358 C.3     1  UNL1        0.0323
@<TRIPOS>BOND
     1    19    20    1
     2    20    13    1
     3    13    14   ar
     4    14    15   ar
     5    15    16   ar
     6    16    17   ar
     7    17    18   ar
     8    18    12    1
     9    12    11    1
    10    11     8    1
    11     8     9    1
    12     8     7    1
    13     7     1    1
    14     1     2    1
    15     2     3    1
    16     3     4    1
    17     4    21    1
    18    21    22    1
    19    22    23    2
    20    22    24   am
    21    24    26    1
    22    26    27   ar
    23    27    28    1
    24    27    29   ar
    25    29    30   ar
    26    30    31   ar
    27    31    32   ar
    28    32    33    1
    29     4     5    1
    30     5     6    1
    31    18    13   ar
    32     6     1    1
    33    32    26   ar
    34     9    10    1
    35    24    25    1
