@<TRIPOS>MOLECULE
*****
 32 35 0 0 0
SMALL
GASTEIGER

@<TRIPOS>ATOM
      1 C         144.3032  139.9967  162.2284 C.ar    1  UNL1        0.1592
      2 C         144.2600  139.2366  160.9360 C.ar    1  UNL1        0.0532
      3 C         143.3156  138.0824  160.7759 C.ar    1  UNL1        0.0538
      4 C         142.4144  137.6881  161.9084 C.ar    1  UNL1        0.0180
      5 C         142.4576  138.4481  163.2008 C.ar    1  UNL1        0.0423
      6 C         141.6946  138.2923  164.4828 C.ar    1  UNL1        0.0966
      7 N         142.1675  139.3503  165.4351 N.ar    1  UNL1       -0.2512
      8 N         143.2227  140.1600  164.7417 N.ar    1  UNL1       -0.1662
      9 C         143.4020  139.6025  163.3608 C.ar    1  UNL1        0.1362
     10 C         141.6721  139.5615  166.8351 C.3     1  UNL1        0.1080
     11 C         142.6183  139.4366  167.9924 C.3     1  UNL1        0.0417
     12 C         142.1228  139.6478  169.3924 C.3     1  UNL1        0.0741
     13 N         140.6813  139.9840  169.6352 N.3     1  UNL1       -0.2714
     14 C         140.1860  140.1952  171.0352 C.3     1  UNL1        0.0896
     15 C         139.7352  140.1089  168.4779 C.3     1  UNL1        0.0741
     16 C         140.2306  139.8977  167.0779 C.3     1  UNL1        0.0417
     17 N         143.2724  137.3223  159.4834 N.am    1  UNL1       -0.2791
     18 C         142.4756  137.8519  158.3281 C.2     1  UNL1        0.2672
     19 O         141.7221  139.1416  158.4653 O.2     1  UNL1       -0.2682
     20 H         143.7670  136.4758  159.3934 H       1  UNL1        0.1552
     21 C         142.4324  137.0918  157.0357 C.ar    1  UNL1        0.1347
     22 C         141.8047  137.7110  155.8222 C.ar    1  UNL1        0.0238
     23 C         141.7615  136.9508  154.5297 C.ar    1  UNL1        0.0032
     24 C         142.3460  135.5716  154.4508 C.ar    1  UNL1        0.0231
     25 C         142.9737  134.9525  155.6644 C.ar    1  UNL1        0.1527
     26 N         143.0169  135.7127  156.9568 N.ar    1  UNL1       -0.2368
     27 C         143.5582  133.5734  155.5855 C.3     1  UNL1        0.4348
     28 F         144.1427  132.1942  155.5066 F       1  UNL1       -0.1644
     29 F         144.3105  133.8193  156.8597 F       1  UNL1       -0.1644
     30 F         142.8059  133.3274  154.3113 F       1  UNL1       -0.1644
     31 C         144.7225  142.5561  162.3827 C.3     1  UNL1        0.2525
     32 O         145.2477  141.1510  162.3884 O.3     1  UNL1       -0.4698
@<TRIPOS>BOND
     1    31    32    1
     2    32     1    1
     3     1     2   ar
     4     2     3   ar
     5     3    17    1
     6    17    18   am
     7    18    19    2
     8    18    21    1
     9    21    22   ar
    10    22    23   ar
    11    23    24   ar
    12    24    25   ar
    13    25    27    1
    14    27    28    1
    15    27    29    1
    16    27    30    1
    17    25    26   ar
    18     3     4   ar
    19     4     5   ar
    20     5     6   ar
    21     6     7   ar
    22     7    10    1
    23    10    11    1
    24    11    12    1
    25    12    13    1
    26    13    14    1
    27    13    15    1
    28    15    16    1
    29     7     8   ar
    30     8     9   ar
    31     9     1   ar
    32    26    21   ar
    33     9     5   ar
    34    16    10    1
    35    17    20    1
@<TRIPOS>MOLECULE
*****
 32 35 0 0 0
SMALL
GASTEIGER

@<TRIPOS>ATOM
      1 C         144.2247  140.0810  162.1092 C.ar    1  UNL1        0.1592
      2 C         144.2009  139.2987  160.8296 C.ar    1  UNL1        0.0532
      3 C         143.3188  138.0920  160.7045 C.ar    1  UNL1        0.0538
      4 C         142.4605  137.6674  161.8592 C.ar    1  UNL1        0.0180
      5 C         142.4844  138.4497  163.1388 C.ar    1  UNL1        0.0423
      6 C         141.7536  138.2732  164.4368 C.ar    1  UNL1        0.0966
      7 N         142.1841  139.3709  165.3640 N.ar    1  UNL1       -0.2512
      8 N         143.1809  140.2258  164.6391 N.ar    1  UNL1       -0.1662
      9 C         143.3665  139.6565  163.2638 C.ar    1  UNL1        0.1362
     10 C         141.7023  139.5774  166.7695 C.3     1  UNL1        0.1080
     11 C         140.2762  139.9666  167.0239 C.3     1  UNL1        0.0417
     12 C         139.7945  140.1731  168.4294 C.3     1  UNL1        0.0741
     13 N         140.7389  139.9904  169.5804 N.3     1  UNL1       -0.2714
     14 C         140.2572  140.1970  170.9859 C.3     1  UNL1        0.0896
     15 C         142.1650  139.6013  169.3260 C.3     1  UNL1        0.0741
     16 C         142.6467  139.3948  167.9205 C.3     1  UNL1        0.0417
     17 N         143.2950  137.3098  159.4248 N.am    1  UNL1       -0.2791
     18 C         142.4682  137.7885  158.2684 C.2     1  UNL1        0.2672
     19 O         141.6653  139.0495  158.3916 O.2     1  UNL1       -0.2682
     20 H         143.8220  136.4821  159.3439 H       1  UNL1        0.1552
     21 C         142.4444  137.0063  156.9887 C.ar    1  UNL1        0.1347
     22 C         141.8081  137.5923  155.7633 C.ar    1  UNL1        0.0238
     23 C         141.7843  136.8099  154.4836 C.ar    1  UNL1        0.0032
     24 C         142.3967  135.4418  154.4294 C.ar    1  UNL1        0.0231
     25 C         143.0330  134.8558  155.6550 C.ar    1  UNL1        0.1527
     26 N         143.0568  135.6381  156.9345 N.ar    1  UNL1       -0.2368
     27 C         143.6454  133.4876  155.6008 C.3     1  UNL1        0.4348
     28 F         144.2579  132.1195  155.5466 F       1  UNL1       -0.1644
     29 F         142.9859  133.2449  154.2756 F       1  UNL1       -0.1644
     30 F         144.3050  133.7304  156.9259 F       1  UNL1       -0.1644
     31 C         144.5099  142.6626  162.1742 C.3     1  UNL1        0.2525
     32 O         145.1068  141.2878  162.2342 O.3     1  UNL1       -0.4698
@<TRIPOS>BOND
     1    31    32    1
     2    32     1    1
     3     1     2   ar
     4     2     3   ar
     5     3    17    1
     6    17    18   am
     7    18    19    2
     8    18    21    1
     9    21    22   ar
    10    22    23   ar
    11    23    24   ar
    12    24    25   ar
    13    25    27    1
    14    27    28    1
    15    27    29    1
    16    27    30    1
    17    25    26   ar
    18     3     4   ar
    19     4     5   ar
    20     5     6   ar
    21     6     7   ar
    22     7    10    1
    23    10    11    1
    24    11    12    1
    25    12    13    1
    26    13    14    1
    27    13    15    1
    28    15    16    1
    29     7     8   ar
    30     8     9   ar
    31     9     1   ar
    32    26    21   ar
    33     9     5   ar
    34    16    10    1
    35    17    20    1
@<TRIPOS>MOLECULE
*****
 32 35 0 0 0
SMALL
GASTEIGER

@<TRIPOS>ATOM
      1 C         138.7924  141.8557  157.9268 C.ar    1  UNL1        0.1592
      2 C         139.0104  141.3210  159.3112 C.ar    1  UNL1        0.0532
      3 C         139.6386  142.1896  160.3604 C.ar    1  UNL1        0.0538
      4 C         140.0488  143.5930  160.0253 C.ar    1  UNL1        0.0180
      5 C         139.8307  144.1277  158.6409 C.ar    1  UNL1        0.0423
      6 C         140.1304  145.4603  158.0210 C.ar    1  UNL1        0.0966
      7 N         139.6874  145.4153  156.5886 N.ar    1  UNL1       -0.2512
      8 N         139.1140  144.0548  156.3233 N.ar    1  UNL1       -0.1662
      9 C         139.2026  143.2591  157.5917 C.ar    1  UNL1        0.1362
     10 C         139.7983  146.5342  155.5958 C.3     1  UNL1        0.1080
     11 C         139.0919  147.8333  155.8478 C.3     1  UNL1        0.0417
     12 C         139.2029  148.9522  154.8549 C.3     1  UNL1        0.0741
     13 N         140.0202  148.7721  153.6101 N.3     1  UNL1       -0.2714
     14 C         140.1311  149.8911  152.6173 C.3     1  UNL1        0.0896
     15 C         140.7265  147.4731  153.3581 C.3     1  UNL1        0.0741
     16 C         140.6156  146.3542  154.3510 C.3     1  UNL1        0.0417
     17 N         139.8566  141.6548  161.7449 N.am    1  UNL1       -0.2791
     18 C         138.7242  141.6355  162.7284 C.2     1  UNL1        0.2672
     19 O         137.3738  142.1509  162.3275 O.2     1  UNL1       -0.2682
     20 H         140.7429  141.3165  162.0080 H       1  UNL1        0.1552
     21 C         138.9422  141.1008  164.1128 C.ar    1  UNL1        0.1347
     22 C         139.6899  141.9188  165.1236 C.ar    1  UNL1        0.0238
     23 C         139.9079  141.3840  166.5080 C.ar    1  UNL1        0.0032
     24 C         139.3781  140.0313  166.8816 C.ar    1  UNL1        0.0231
     25 C         138.6304  139.2133  165.8706 C.ar    1  UNL1        0.1527
     26 N         138.4125  139.7481  164.4863 N.ar    1  UNL1       -0.2368
     27 C         138.1007  137.8606  166.2442 C.3     1  UNL1        0.4348
     28 F         137.5710  136.5079  166.6177 F       1  UNL1       -0.1644
     29 F         137.3371  138.4734  167.3805 F       1  UNL1       -0.1644
     30 F         138.8643  137.2478  165.1078 F       1  UNL1       -0.1644
     31 C         136.6892  141.0713  156.6188 C.3     1  UNL1        0.2525
     32 O         138.1642  140.9871  156.8776 O.3     1  UNL1       -0.4698
@<TRIPOS>BOND
     1    31    32    1
     2    32     1    1
     3     1     2   ar
     4     2     3   ar
     5     3    17    1
     6    17    18   am
     7    18    19    2
     8    18    21    1
     9    21    22   ar
    10    22    23   ar
    11    23    24   ar
    12    24    25   ar
    13    25    27    1
    14    27    28    1
    15    27    29    1
    16    27    30    1
    17    25    26   ar
    18     3     4   ar
    19     4     5   ar
    20     5     6   ar
    21     6     7   ar
    22     7    10    1
    23    10    11    1
    24    11    12    1
    25    12    13    1
    26    13    14    1
    27    13    15    1
    28    15    16    1
    29     7     8   ar
    30     8     9   ar
    31     9     1   ar
    32    26    21   ar
    33     9     5   ar
    34    16    10    1
    35    17    20    1
@<TRIPOS>MOLECULE
*****
 32 35 0 0 0
SMALL
GASTEIGER

@<TRIPOS>ATOM
      1 C         138.6259  142.3296  161.5113 C.ar    1  UNL1        0.1592
      2 C         138.9446  142.3551  162.9768 C.ar    1  UNL1        0.0532
      3 C         139.9720  143.3122  163.5043 C.ar    1  UNL1        0.0538
      4 C         140.6808  144.2438  162.5663 C.ar    1  UNL1        0.0180
      5 C         140.3621  144.2183  161.1008 C.ar    1  UNL1        0.0423
      6 C         140.8937  145.0116  159.9441 C.ar    1  UNL1        0.0966
      7 N         140.1949  144.5447  158.7017 N.ar    1  UNL1       -0.2512
      8 N         139.2313  143.4629  159.0905 N.ar    1  UNL1       -0.1662
      9 C         139.3346  143.2612  160.5733 C.ar    1  UNL1        0.1362
     10 C         140.4200  145.0678  157.3140 C.3     1  UNL1        0.1080
     11 C         141.2021  144.2562  156.3242 C.3     1  UNL1        0.0417
     12 C         141.4272  144.7794  154.9365 C.3     1  UNL1        0.0741
     13 N         140.8703  146.1142  154.5386 N.3     1  UNL1       -0.2714
     14 C         141.0955  146.6373  153.1509 C.3     1  UNL1        0.0896
     15 C         140.0883  146.9258  155.5284 C.3     1  UNL1        0.0741
     16 C         139.8631  146.4026  156.9161 C.3     1  UNL1        0.0417
     17 N         140.2907  143.3377  164.9699 N.am    1  UNL1       -0.2791
     18 C         141.4116  142.4988  165.5084 C.2     1  UNL1        0.2672
     19 O         142.2137  141.6344  164.5813 O.2     1  UNL1       -0.2682
     20 H         139.7643  143.9050  165.5783 H       1  UNL1        0.1552
     21 C         141.7303  142.5243  166.9739 C.ar    1  UNL1        0.1347
     22 C         143.1147  142.1920  167.4462 C.ar    1  UNL1        0.0238
     23 C         143.4333  142.2175  168.9118 C.ar    1  UNL1        0.0032
     24 C         142.3677  142.5753  169.9050 C.ar    1  UNL1        0.0231
     25 C         140.9833  142.9076  169.4325 C.ar    1  UNL1        0.1527
     26 N         140.6647  142.8821  167.9670 N.ar    1  UNL1       -0.2368
     27 C         139.9177  143.2655  170.4257 C.3     1  UNL1        0.4348
     28 F         138.8520  143.6233  171.4189 F       1  UNL1       -0.1644
     29 F         139.5729  141.8137  170.5788 F       1  UNL1       -0.1644
     30 F         140.2625  144.7172  170.2726 F       1  UNL1       -0.1644
     31 C         137.9000  139.9042  160.9277 C.3     1  UNL1        0.2525
     32 O         137.5984  141.3725  160.9837 O.3     1  UNL1       -0.4698
@<TRIPOS>BOND
     1    31    32    1
     2    32     1    1
     3     1     2   ar
     4     2     3   ar
     5     3    17    1
     6    17    18   am
     7    18    19    2
     8    18    21    1
     9    21    22   ar
    10    22    23   ar
    11    23    24   ar
    12    24    25   ar
    13    25    27    1
    14    27    28    1
    15    27    29    1
    16    27    30    1
    17    25    26   ar
    18     3     4   ar
    19     4     5   ar
    20     5     6   ar
    21     6     7   ar
    22     7    10    1
    23    10    11    1
    24    11    12    1
    25    12    13    1
    26    13    14    1
    27    13    15    1
    28    15    16    1
    29     7     8   ar
    30     8     9   ar
    31     9     1   ar
    32    26    21   ar
    33     9     5   ar
    34    16    10    1
    35    17    20    1
@<TRIPOS>MOLECULE
*****
 32 35 0 0 0
SMALL
GASTEIGER

@<TRIPOS>ATOM
      1 C         141.8808  144.3035  161.4073 C.ar    1  UNL1        0.1592
      2 C         141.8052  144.0045  162.8752 C.ar    1  UNL1        0.0532
      3 C         142.7271  142.9889  163.4822 C.ar    1  UNL1        0.0538
      4 C         143.7248  142.2723  162.6213 C.ar    1  UNL1        0.0180
      5 C         143.8005  142.5713  161.1534 C.ar    1  UNL1        0.0423
      6 C         144.6748  142.0282  160.0622 C.ar    1  UNL1        0.0966
      7 N         144.2931  142.7082  158.7808 N.ar    1  UNL1       -0.2512
      8 N         143.1830  143.6715  159.0800 N.ar    1  UNL1       -0.1662
      9 C         142.8785  143.5870  160.5464 C.ar    1  UNL1        0.1362
     10 C         144.9128  142.4671  157.4363 C.3     1  UNL1        0.1080
     11 C         146.4038  142.5116  157.2787 C.3     1  UNL1        0.0417
     12 C         147.0234  142.2706  155.9341 C.3     1  UNL1        0.0741
     13 N         146.1521  141.9850  154.7470 N.3     1  UNL1       -0.2714
     14 C         146.7718  141.7439  153.4024 C.3     1  UNL1        0.0896
     15 C         144.6610  141.9405  154.9045 C.3     1  UNL1        0.0741
     16 C         144.0414  142.1815  156.2492 C.3     1  UNL1        0.0417
     17 N         142.6514  142.6899  164.9502 N.am    1  UNL1       -0.2791
     18 C         141.8004  141.5567  165.4419 C.2     1  UNL1        0.2672
     19 O         141.0251  140.7225  164.4656 O.2     1  UNL1       -0.2682
     20 H         143.1603  143.2373  165.5910 H       1  UNL1        0.1552
     21 C         141.7248  141.2576  166.9098 C.ar    1  UNL1        0.1347
     22 C         142.4587  140.0771  167.4735 C.ar    1  UNL1        0.0238
     23 C         142.3829  139.7781  168.9415 C.ar    1  UNL1        0.0032
     24 C         141.5733  140.6596  169.8457 C.ar    1  UNL1        0.0231
     25 C         140.8394  141.8401  169.2819 C.ar    1  UNL1        0.1527
     26 N         140.9151  142.1391  167.8140 N.ar    1  UNL1       -0.2368
     27 C         140.0298  142.7215  170.1861 C.3     1  UNL1        0.4348
     28 F         139.2202  143.6030  171.0903 F       1  UNL1       -0.1644
     29 F         139.0175  141.6264  170.3472 F       1  UNL1       -0.1644
     30 F         141.0421  143.8166  170.0250 F       1  UNL1       -0.1644
     31 C         139.8741  145.9385  161.6308 C.3     1  UNL1        0.2525
     32 O         140.9588  145.3192  160.8003 O.3     1  UNL1       -0.4698
@<TRIPOS>BOND
     1    31    32    1
     2    32     1    1
     3     1     2   ar
     4     2     3   ar
     5     3    17    1
     6    17    18   am
     7    18    19    2
     8    18    21    1
     9    21    22   ar
    10    22    23   ar
    11    23    24   ar
    12    24    25   ar
    13    25    27    1
    14    27    28    1
    15    27    29    1
    16    27    30    1
    17    25    26   ar
    18     3     4   ar
    19     4     5   ar
    20     5     6   ar
    21     6     7   ar
    22     7    10    1
    23    10    11    1
    24    11    12    1
    25    12    13    1
    26    13    14    1
    27    13    15    1
    28    15    16    1
    29     7     8   ar
    30     8     9   ar
    31     9     1   ar
    32    26    21   ar
    33     9     5   ar
    34    16    10    1
    35    17    20    1
@<TRIPOS>MOLECULE
*****
 32 35 0 0 0
SMALL
GASTEIGER

@<TRIPOS>ATOM
      1 C         139.3415  143.6310  161.6629 C.ar    1  UNL1        0.1592
      2 C         139.7437  143.2874  163.0665 C.ar    1  UNL1        0.0532
      3 C         139.8079  141.8524  163.4984 C.ar    1  UNL1        0.0538
      4 C         139.4699  140.7609  162.5266 C.ar    1  UNL1        0.0180
      5 C         139.0677  141.1045  161.1229 C.ar    1  UNL1        0.0423
      6 C         138.6811  140.2503  159.9521 C.ar    1  UNL1        0.0966
      7 N         138.3780  141.1575  158.7966 N.ar    1  UNL1       -0.2512
      8 N         138.5773  142.5723  159.2533 N.ar    1  UNL1       -0.1662
      9 C         139.0035  142.5395  160.6911 C.ar    1  UNL1        0.1362
     10 C         137.9506  140.7257  157.4251 C.3     1  UNL1        0.1080
     11 C         138.8732  139.9014  156.5769 C.3     1  UNL1        0.0417
     12 C         138.4457  139.4696  155.2054 C.3     1  UNL1        0.0741
     13 N         137.0959  139.8621  154.6822 N.3     1  UNL1       -0.2714
     14 C         136.6685  139.4303  153.3107 C.3     1  UNL1        0.0896
     15 C         136.1733  140.6864  155.5304 C.3     1  UNL1        0.0741
     16 C         136.6008  141.1182  156.9019 C.3     1  UNL1        0.0417
     17 N         140.2101  141.5089  164.9021 N.am    1  UNL1       -0.2791
     18 C         141.6625  141.3984  165.2604 C.2     1  UNL1        0.2672
     19 O         142.7127  141.6316  164.2151 O.2     1  UNL1       -0.2682
     20 H         139.5208  141.3558  165.5882 H       1  UNL1        0.1552
     21 C         142.0647  141.0549  166.6640 C.ar    1  UNL1        0.1347
     22 C         142.1227  139.6201  167.0977 C.ar    1  UNL1        0.0238
     23 C         142.5249  139.2766  168.5014 C.ar    1  UNL1        0.0032
     24 C         142.8691  140.3678  169.4714 C.ar    1  UNL1        0.0231
     25 C         142.8110  141.8026  169.0376 C.ar    1  UNL1        0.1527
     26 N         142.4088  142.1461  167.6339 N.ar    1  UNL1       -0.2368
     27 C         143.1552  142.8938  170.0075 C.3     1  UNL1        0.4348
     28 F         143.4994  143.9850  170.9774 F       1  UNL1       -0.1644
     29 F         144.5420  142.3378  170.1409 F       1  UNL1       -0.1644
     30 F         141.7685  143.4498  169.8741 F       1  UNL1       -0.1644
     31 C         139.9700  146.1238  162.0381 C.3     1  UNL1        0.2525
     32 O         139.2774  145.0661  161.2311 O.3     1  UNL1       -0.4698
@<TRIPOS>BOND
     1    31    32    1
     2    32     1    1
     3     1     2   ar
     4     2     3   ar
     5     3    17    1
     6    17    18   am
     7    18    19    2
     8    18    21    1
     9    21    22   ar
    10    22    23   ar
    11    23    24   ar
    12    24    25   ar
    13    25    27    1
    14    27    28    1
    15    27    29    1
    16    27    30    1
    17    25    26   ar
    18     3     4   ar
    19     4     5   ar
    20     5     6   ar
    21     6     7   ar
    22     7    10    1
    23    10    11    1
    24    11    12    1
    25    12    13    1
    26    13    14    1
    27    13    15    1
    28    15    16    1
    29     7     8   ar
    30     8     9   ar
    31     9     1   ar
    32    26    21   ar
    33     9     5   ar
    34    16    10    1
    35    17    20    1
@<TRIPOS>MOLECULE
*****
 32 35 0 0 0
SMALL
GASTEIGER

@<TRIPOS>ATOM
      1 C         143.3420  141.6543  161.5194 C.ar    1  UNL1        0.1592
      2 C         143.1396  142.4388  160.2570 C.ar    1  UNL1        0.0532
      3 C         142.4171  143.7525  160.2981 C.ar    1  UNL1        0.0538
      4 C         141.8969  144.2820  161.6017 C.ar    1  UNL1        0.0180
      5 C         142.0993  143.4975  162.8641 C.ar    1  UNL1        0.0423
      6 C         141.7014  143.7635  164.2857 C.ar    1  UNL1        0.0966
      7 N         142.1782  142.6140  165.1232 N.ar    1  UNL1       -0.2512
      8 N         142.8706  141.6376  164.2192 N.ar    1  UNL1       -0.1662
      9 C         142.8218  142.1837  162.8229 C.ar    1  UNL1        0.1362
     10 C         141.9947  142.4667  166.6046 C.3     1  UNL1        0.1080
     11 C         140.6228  142.5618  167.2035 C.3     1  UNL1        0.0417
     12 C         140.4394  142.4145  168.6850 C.3     1  UNL1        0.0741
     13 N         141.6278  142.1721  169.5675 N.3     1  UNL1       -0.2714
     14 C         141.4443  142.0248  171.0489 C.3     1  UNL1        0.0896
     15 C         142.9997  142.0770  168.9686 C.3     1  UNL1        0.0741
     16 C         143.1831  142.2243  167.4871 C.3     1  UNL1        0.0417
     17 N         142.2147  144.5370  159.0357 N.am    1  UNL1       -0.2791
     18 C         140.9092  144.4533  158.3018 C.2     1  UNL1        0.2672
     19 O         139.8060  143.5851  158.8303 O.2     1  UNL1       -0.2682
     20 H         142.9387  145.1069  158.6888 H       1  UNL1        0.1552
     21 C         140.7068  145.2378  157.0394 C.ar    1  UNL1        0.1347
     22 C         141.3314  144.7710  155.7580 C.ar    1  UNL1        0.0238
     23 C         141.1289  145.5555  154.4956 C.ar    1  UNL1        0.0032
     24 C         140.3019  146.8068  154.5146 C.ar    1  UNL1        0.0231
     25 C         139.6773  147.2735  155.7961 C.ar    1  UNL1        0.1527
     26 N         139.8798  146.4890  157.0584 N.ar    1  UNL1       -0.2368
     27 C         138.8503  148.5248  155.8151 C.3     1  UNL1        0.4348
     28 F         138.0233  149.7761  155.8341 F       1  UNL1       -0.1644
     29 F         139.1037  148.7146  154.3489 F       1  UNL1       -0.1644
     30 F         138.5969  148.3350  157.2813 F       1  UNL1       -0.1644
     31 C         143.8833  139.4211  160.3070 C.3     1  UNL1        0.2525
     32 O         144.0646  140.3404  161.4783 O.3     1  UNL1       -0.4698
@<TRIPOS>BOND
     1    31    32    1
     2    32     1    1
     3     1     2   ar
     4     2     3   ar
     5     3    17    1
     6    17    18   am
     7    18    19    2
     8    18    21    1
     9    21    22   ar
    10    22    23   ar
    11    23    24   ar
    12    24    25   ar
    13    25    27    1
    14    27    28    1
    15    27    29    1
    16    27    30    1
    17    25    26   ar
    18     3     4   ar
    19     4     5   ar
    20     5     6   ar
    21     6     7   ar
    22     7    10    1
    23    10    11    1
    24    11    12    1
    25    12    13    1
    26    13    14    1
    27    13    15    1
    28    15    16    1
    29     7     8   ar
    30     8     9   ar
    31     9     1   ar
    32    26    21   ar
    33     9     5   ar
    34    16    10    1
    35    17    20    1
@<TRIPOS>MOLECULE
*****
 32 35 0 0 0
SMALL
GASTEIGER

@<TRIPOS>ATOM
      1 C         144.0276  140.2148  161.9082 C.ar    1  UNL1        0.1592
      2 C         144.0272  139.4339  160.6275 C.ar    1  UNL1        0.0532
      3 C         143.2097  138.1816  160.5129 C.ar    1  UNL1        0.0538
      4 C         142.3925  137.7100  161.6791 C.ar    1  UNL1        0.0180
      5 C         142.3928  138.4909  162.9598 C.ar    1  UNL1        0.0423
      6 C         141.6916  138.2737  164.2679 C.ar    1  UNL1        0.0966
      7 N         142.0758  139.3919  165.1909 N.ar    1  UNL1       -0.2512
      8 N         143.0144  140.3002  164.4533 N.ar    1  UNL1       -0.1662
      9 C         143.2104  139.7433  163.0743 C.ar    1  UNL1        0.1362
     10 C         141.6042  139.5705  166.6036 C.3     1  UNL1        0.1080
     11 C         140.1664  139.8977  166.8786 C.3     1  UNL1        0.0417
     12 C         139.6948  140.0763  168.2913 C.3     1  UNL1        0.0741
     13 N         140.6610  139.9278  169.4290 N.3     1  UNL1       -0.2714
     14 C         140.1894  140.1064  170.8417 C.3     1  UNL1        0.0896
     15 C         142.0988  139.6006  169.1540 C.3     1  UNL1        0.0741
     16 C         142.5703  139.4220  167.7413 C.3     1  UNL1        0.0417
     17 N         143.2094  137.4007  159.2322 N.am    1  UNL1       -0.2791
     18 C         142.2273  137.7365  158.1492 C.2     1  UNL1        0.2672
     19 O         141.2455  138.8531  158.3470 O.2     1  UNL1       -0.2682
     20 H         143.8538  136.6677  159.1023 H       1  UNL1        0.1552
     21 C         142.2270  136.9556  156.8685 C.ar    1  UNL1        0.1347
     22 C         143.3724  136.0421  156.5468 C.ar    1  UNL1        0.0238
     23 C         143.3720  135.2613  155.2660 C.ar    1  UNL1        0.0032
     24 C         142.2262  135.3939  154.3070 C.ar    1  UNL1        0.0231
     25 C         141.0808  136.3074  154.6289 C.ar    1  UNL1        0.1527
     26 N         141.0812  137.0882  155.9096 N.ar    1  UNL1       -0.2368
     27 C         139.9350  136.4400  153.6699 C.3     1  UNL1        0.4348
     28 F         138.7892  136.5727  152.7110 F       1  UNL1       -0.1644
     29 F         139.0865  137.0179  154.7636 F       1  UNL1       -0.1644
     30 F         140.7835  135.8622  152.5762 F       1  UNL1       -0.1644
     31 C         145.7315  141.6778  163.2144 C.3     1  UNL1        0.2525
     32 O         144.8451  141.4672  162.0228 O.3     1  UNL1       -0.4698
@<TRIPOS>BOND
     1    31    32    1
     2    32     1    1
     3     1     2   ar
     4     2     3   ar
     5     3    17    1
     6    17    18   am
     7    18    19    2
     8    18    21    1
     9    21    22   ar
    10    22    23   ar
    11    23    24   ar
    12    24    25   ar
    13    25    27    1
    14    27    28    1
    15    27    29    1
    16    27    30    1
    17    25    26   ar
    18     3     4   ar
    19     4     5   ar
    20     5     6   ar
    21     6     7   ar
    22     7    10    1
    23    10    11    1
    24    11    12    1
    25    12    13    1
    26    13    14    1
    27    13    15    1
    28    15    16    1
    29     7     8   ar
    30     8     9   ar
    31     9     1   ar
    32    26    21   ar
    33     9     5   ar
    34    16    10    1
    35    17    20    1
@<TRIPOS>MOLECULE
*****
 32 35 0 0 0
SMALL
GASTEIGER

@<TRIPOS>ATOM
      1 C         140.9414  139.5960  161.5566 C.ar    1  UNL1        0.1592
      2 C         140.0855  139.5131  160.3277 C.ar    1  UNL1        0.0532
      3 C         138.6400  139.9084  160.3923 C.ar    1  UNL1        0.0538
      4 C         138.0504  140.3868  161.6861 C.ar    1  UNL1        0.0180
      5 C         138.9064  140.4697  162.9151 C.ar    1  UNL1        0.0423
      6 C         138.6060  140.9000  164.3202 C.ar    1  UNL1        0.0966
      7 N         139.8658  140.7706  165.1240 N.ar    1  UNL1       -0.2512
      8 N         140.9449  140.2603  164.2155 N.ar    1  UNL1       -0.1662
      9 C         140.3519  140.0743  162.8503 C.ar    1  UNL1        0.1362
     10 C         140.0197  141.0946  166.5804 C.3     1  UNL1        0.1080
     11 C         139.7332  140.0479  167.6160 C.3     1  UNL1        0.0417
     12 C         139.8871  140.3721  169.0725 C.3     1  UNL1        0.0741
     13 N         140.3274  141.7428  169.4934 N.3     1  UNL1       -0.2714
     14 C         140.4812  142.0668  170.9499 C.3     1  UNL1        0.0896
     15 C         140.6138  142.7895  168.4579 C.3     1  UNL1        0.0741
     16 C         140.4600  142.4654  167.0014 C.3     1  UNL1        0.0417
     17 N         137.7840  139.8255  159.1633 N.am    1  UNL1       -0.2791
     18 C         137.8088  140.9364  158.1557 C.2     1  UNL1        0.2672
     19 O         138.6895  142.1303  158.3771 O.2     1  UNL1       -0.2682
     20 H         137.2060  139.0419  159.0180 H       1  UNL1        0.1552
     21 C         136.9528  140.8535  156.9267 C.ar    1  UNL1        0.1347
     22 C         137.5546  141.1021  155.5754 C.ar    1  UNL1        0.0238
     23 C         136.6985  141.0191  154.3464 C.ar    1  UNL1        0.0032
     24 C         135.2408  140.6877  154.4687 C.ar    1  UNL1        0.0231
     25 C         134.6390  140.4392  155.8201 C.ar    1  UNL1        0.1527
     26 N         135.4950  140.5221  157.0490 N.ar    1  UNL1       -0.2368
     27 C         133.1812  140.1077  155.9424 C.3     1  UNL1        0.4348
     28 F         131.7234  139.7763  156.0648 F       1  UNL1       -0.1644
     29 F         133.5284  138.6677  156.1785 F       1  UNL1       -0.1644
     30 F         132.8340  141.5477  155.7064 F       1  UNL1       -0.1644
     31 C         142.9038  138.1008  162.3712 C.3     1  UNL1        0.2525
     32 O         142.3869  139.2006  161.4919 O.3     1  UNL1       -0.4698
@<TRIPOS>BOND
     1    31    32    1
     2    32     1    1
     3     1     2   ar
     4     2     3   ar
     5     3    17    1
     6    17    18   am
     7    18    19    2
     8    18    21    1
     9    21    22   ar
    10    22    23   ar
    11    23    24   ar
    12    24    25   ar
    13    25    27    1
    14    27    28    1
    15    27    29    1
    16    27    30    1
    17    25    26   ar
    18     3     4   ar
    19     4     5   ar
    20     5     6   ar
    21     6     7   ar
    22     7    10    1
    23    10    11    1
    24    11    12    1
    25    12    13    1
    26    13    14    1
    27    13    15    1
    28    15    16    1
    29     7     8   ar
    30     8     9   ar
    31     9     1   ar
    32    26    21   ar
    33     9     5   ar
    34    16    10    1
    35    17    20    1
