@<TRIPOS>MOLECULE
*****
 38 42 0 0 0
SMALL
GASTEIGER

@<TRIPOS>ATOM
      1 N         139.9943  140.7541  161.5194 N.am    1  UNL1       -0.2794
      2 C         139.0374  141.7419  160.9205 C.2     1  UNL1        0.2495
      3 O         137.7286  142.0233  161.5972 O.2     1  UNL1       -0.2698
      4 H         140.8533  140.5694  161.0753 H       1  UNL1        0.1552
      5 N         138.8431  137.9851  161.4322 N.pl3   1  UNL1       -0.3560
      6 C         139.0668  138.6632  162.7514 C.ar    1  UNL1        0.0552
      7 C         138.7148  137.9568  164.0269 C.ar    1  UNL1        0.0153
      8 C         138.9385  138.6349  165.3461 C.ar    1  UNL1        0.0013
      9 C         139.5140  140.0193  165.3897 C.ar    1  UNL1        0.0013
     10 C         139.8660  140.7258  164.1141 C.ar    1  UNL1        0.0159
     11 C         139.6423  140.0477  162.7950 C.ar    1  UNL1        0.0636
     12 H         138.4654  137.0764  161.4036 H       1  UNL1        0.1424
     13 H         139.0741  138.4487  160.5950 H       1  UNL1        0.1424
     14 C         139.7377  140.6975  166.7089 C.ar    1  UNL1        0.0000
     15 C         139.3385  140.0119  167.9819 C.ar    1  UNL1        0.0000
     16 C         139.5622  140.6901  169.3010 C.ar    1  UNL1        0.0000
     17 C         140.1851  142.0539  169.3470 C.ar    1  UNL1        0.0000
     18 C         140.5842  142.7395  168.0740 C.ar    1  UNL1        0.0000
     19 C         140.3606  142.0613  166.7549 C.ar    1  UNL1        0.0000
     20 C         139.3892  142.4484  159.6449 C.ar    1  UNL1        0.0537
     21 C         140.6550  143.2482  159.5549 C.ar    1  UNL1        0.0047
     22 C         141.0067  143.9546  158.2793 C.ar    1  UNL1        0.0047
     23 C         140.0927  143.8613  157.0937 C.ar    1  UNL1        0.0536
     24 C         138.8269  143.0615  157.1836 C.ar    1  UNL1        0.0047
     25 C         138.4752  142.3551  158.4592 C.ar    1  UNL1        0.0047
     26 C         140.4445  144.5678  155.8181 C.2     1  UNL1        0.2490
     27 O         141.1829  143.8379  154.7355 O.2     1  UNL1       -0.2699
     28 N         140.0579  146.0042  155.6251 N.am    1  UNL1       -0.2760
     29 C         140.4097  146.7108  154.3496 C.3     1  UNL1        0.0950
     30 C         140.0231  148.1472  154.1566 C.3     1  UNL1        0.0360
     31 C         139.2847  148.8771  155.2392 C.3     1  UNL1        0.0452
     32 C         138.5482  149.7323  156.2273 C.3     1  UNL1        0.0160
     33 C         138.3751  151.0942  155.6231 C.3     1  UNL1        0.0184
     34 C         139.0045  151.0807  154.2616 C.3     1  UNL1        0.0685
     35 N         139.5667  149.7105  154.0243 N.3     1  UNL1       -0.2994
     36 C         138.9329  148.1705  156.5148 C.3     1  UNL1        0.0360
     37 C         139.3195  146.7341  156.7077 C.3     1  UNL1        0.0950
     38 H         140.5734  149.7709  153.8721 H       1  UNL1        0.1232
@<TRIPOS>BOND
     1     5     6    1
     2     6     7   ar
     3     7     8   ar
     4     8     9   ar
     5     9    14    1
     6    14    15   ar
     7    15    16   ar
     8    16    17   ar
     9    17    18   ar
    10    18    19   ar
    11     9    10   ar
    12    10    11   ar
    13    11     1    1
    14     1     2   am
    15     2     3    2
    16     2    20    1
    17    20    21   ar
    18    21    22   ar
    19    22    23   ar
    20    23    26    1
    21    26    27    2
    22    26    28   am
    23    28    29    1
    24    29    30    1
    25    30    31    1
    26    31    32    1
    27    32    33    1
    28    33    34    1
    29    34    35    1
    30    31    36    1
    31    36    37    1
    32    23    24   ar
    33    24    25   ar
    34    11     6   ar
    35    25    20   ar
    36    19    14   ar
    37    37    28    1
    38    35    31    1
    39     5    12    1
    40     5    13    1
    41     1     4    1
    42    35    38    1
@<TRIPOS>MOLECULE
*****
 38 42 0 0 0
SMALL
GASTEIGER

@<TRIPOS>ATOM
      1 N         142.1119  138.3693  160.0313 N.am    1  UNL1       -0.2794
      2 C         140.6491  138.4469  160.3540 C.2     1  UNL1        0.2495
      3 O         139.6332  138.3736  159.2528 O.2     1  UNL1       -0.2698
      4 H         142.7787  138.4174  160.7541 H       1  UNL1        0.1552
      5 N         142.9218  140.7860  158.4491 N.pl3   1  UNL1       -0.3560
      6 C         142.9638  139.4267  157.8163 C.ar    1  UNL1        0.0552
      7 C         143.4107  139.2757  156.3925 C.ar    1  UNL1        0.0153
      8 C         143.4527  137.9163  155.7597 C.ar    1  UNL1        0.0013
      9 C         143.0478  136.7080  156.5508 C.ar    1  UNL1        0.0013
     10 C         142.6008  136.8590  157.9747 C.ar    1  UNL1        0.0159
     11 C         142.5589  138.2183  158.6074 C.ar    1  UNL1        0.0636
     12 H         143.1876  141.5791  157.9298 H       1  UNL1        0.1424
     13 H         142.6285  140.8851  159.3836 H       1  UNL1        0.1424
     14 C         143.0897  135.3486  155.9181 C.ar    1  UNL1        0.0000
     15 C         143.8631  134.2411  156.5704 C.ar    1  UNL1        0.0000
     16 C         143.9050  132.8818  155.9376 C.ar    1  UNL1        0.0000
     17 C         143.1736  132.6299  154.6526 C.ar    1  UNL1        0.0000
     18 C         142.4002  133.7373  154.0002 C.ar    1  UNL1        0.0000
     19 C         142.3583  135.0966  154.6330 C.ar    1  UNL1        0.0000
     20 C         140.2021  138.5979  161.7779 C.ar    1  UNL1        0.0537
     21 C         140.6728  137.6260  162.8190 C.ar    1  UNL1        0.0047
     22 C         140.2257  137.7770  164.2428 C.ar    1  UNL1        0.0047
     23 C         139.3079  138.9000  164.6255 C.ar    1  UNL1        0.0536
     24 C         138.8372  139.8719  163.5845 C.ar    1  UNL1        0.0047
     25 C         139.2843  139.7209  162.1607 C.ar    1  UNL1        0.0047
     26 C         138.8608  139.0510  166.0494 C.2     1  UNL1        0.2490
     27 O         137.5546  138.4611  166.4920 O.2     1  UNL1       -0.2699
     28 N         139.7200  139.7919  167.0307 N.am    1  UNL1       -0.2760
     29 C         139.2730  139.9430  168.4545 C.3     1  UNL1        0.0950
     30 C         140.1322  140.6839  169.4358 C.3     1  UNL1        0.0360
     31 C         141.4384  141.2737  168.9932 C.3     1  UNL1        0.0452
     32 C         142.7623  141.9142  168.6981 C.3     1  UNL1        0.0160
     33 C         143.2666  142.5405  169.9643 C.3     1  UNL1        0.0184
     34 C         142.2544  142.2872  171.0420 C.3     1  UNL1        0.0685
     35 N         141.1245  141.5042  170.4417 N.3     1  UNL1       -0.2994
     36 C         141.8854  141.1227  167.5693 C.3     1  UNL1        0.0360
     37 C         141.0262  140.3818  166.5881 C.3     1  UNL1        0.0950
     38 H         140.2548  142.0301  170.5280 H       1  UNL1        0.1232
@<TRIPOS>BOND
     1     5     6    1
     2     6     7   ar
     3     7     8   ar
     4     8     9   ar
     5     9    14    1
     6    14    15   ar
     7    15    16   ar
     8    16    17   ar
     9    17    18   ar
    10    18    19   ar
    11     9    10   ar
    12    10    11   ar
    13    11     1    1
    14     1     2   am
    15     2     3    2
    16     2    20    1
    17    20    21   ar
    18    21    22   ar
    19    22    23   ar
    20    23    26    1
    21    26    27    2
    22    26    28   am
    23    28    29    1
    24    29    30    1
    25    30    31    1
    26    31    32    1
    27    32    33    1
    28    33    34    1
    29    34    35    1
    30    31    36    1
    31    36    37    1
    32    23    24   ar
    33    24    25   ar
    34    11     6   ar
    35    25    20   ar
    36    19    14   ar
    37    37    28    1
    38    35    31    1
    39     5    12    1
    40     5    13    1
    41     1     4    1
    42    35    38    1
@<TRIPOS>MOLECULE
*****
 38 42 0 0 0
SMALL
GASTEIGER

@<TRIPOS>ATOM
      1 N         140.7057  144.3880  158.9581 N.am    1  UNL1       -0.2794
      2 C         140.4240  145.0652  160.2665 C.2     1  UNL1        0.2495
      3 O         139.4096  146.1679  160.3373 O.2     1  UNL1       -0.2698
      4 H         141.3716  143.6643  158.9116 H       1  UNL1        0.1552
      5 N         139.2629  142.3510  157.2941 N.pl3   1  UNL1       -0.3560
      6 C         139.2516  143.7950  156.8884 C.ar    1  UNL1        0.0552
      7 C         138.5188  144.2205  155.6507 C.ar    1  UNL1        0.0153
      8 C         138.5074  145.6646  155.2450 C.ar    1  UNL1        0.0013
      9 C         139.2288  146.6830  156.0769 C.ar    1  UNL1        0.0013
     10 C         139.9615  146.2576  157.3146 C.ar    1  UNL1        0.0159
     11 C         139.9729  144.8135  157.7204 C.ar    1  UNL1        0.0636
     12 H         138.7895  141.6825  156.7480 H       1  UNL1        0.1424
     13 H         139.7439  142.0717  158.1065 H       1  UNL1        0.1424
     14 C         139.2174  148.1272  155.6712 C.ar    1  UNL1        0.0000
     15 C         138.4870  149.1356  156.5077 C.ar    1  UNL1        0.0000
     16 C         138.4757  150.5796  156.1020 C.ar    1  UNL1        0.0000
     17 C         139.1947  151.0152  154.8598 C.ar    1  UNL1        0.0000
     18 C         139.9251  150.0068  154.0233 C.ar    1  UNL1        0.0000
     19 C         139.9364  148.5628  154.4290 C.ar    1  UNL1        0.0000
     20 C         141.1568  144.6398  161.5044 C.ar    1  UNL1        0.0537
     21 C         141.9203  143.3487  161.5176 C.ar    1  UNL1        0.0047
     22 C         142.6530  142.9234  162.7555 C.ar    1  UNL1        0.0047
     23 C         142.6222  143.7891  163.9800 C.ar    1  UNL1        0.0536
     24 C         141.8586  145.0802  163.9668 C.ar    1  UNL1        0.0047
     25 C         141.1260  145.5055  162.7289 C.ar    1  UNL1        0.0047
     26 C         143.3549  143.3638  165.2178 C.2     1  UNL1        0.2490
     27 O         144.8247  143.6326  165.3491 O.2     1  UNL1       -0.2699
     28 N         142.6177  142.6695  166.3245 N.am    1  UNL1       -0.2760
     29 C         143.3504  142.2440  167.5623 C.3     1  UNL1        0.0950
     30 C         142.6131  141.5498  168.6689 C.3     1  UNL1        0.0360
     31 C         141.1433  141.2809  168.5376 C.3     1  UNL1        0.0452
     32 C         139.6812  140.9460  168.5486 C.3     1  UNL1        0.0160
     33 C         139.3731  140.2578  169.8453 C.3     1  UNL1        0.0184
     34 C         140.6447  140.1674  170.6357 C.3     1  UNL1        0.0685
     35 N         141.7388  140.7997  169.8275 N.3     1  UNL1       -0.2994
     36 C         140.4106  141.7064  167.2998 C.3     1  UNL1        0.0360
     37 C         141.1479  142.4006  166.1932 C.3     1  UNL1        0.0950
     38 H         142.4691  140.1137  169.6370 H       1  UNL1        0.1232
@<TRIPOS>BOND
     1     5     6    1
     2     6     7   ar
     3     7     8   ar
     4     8     9   ar
     5     9    14    1
     6    14    15   ar
     7    15    16   ar
     8    16    17   ar
     9    17    18   ar
    10    18    19   ar
    11     9    10   ar
    12    10    11   ar
    13    11     1    1
    14     1     2   am
    15     2     3    2
    16     2    20    1
    17    20    21   ar
    18    21    22   ar
    19    22    23   ar
    20    23    26    1
    21    26    27    2
    22    26    28   am
    23    28    29    1
    24    29    30    1
    25    30    31    1
    26    31    32    1
    27    32    33    1
    28    33    34    1
    29    34    35    1
    30    31    36    1
    31    36    37    1
    32    23    24   ar
    33    24    25   ar
    34    11     6   ar
    35    25    20   ar
    36    19    14   ar
    37    37    28    1
    38    35    31    1
    39     5    12    1
    40     5    13    1
    41     1     4    1
    42    35    38    1
@<TRIPOS>MOLECULE
*****
 38 42 0 0 0
SMALL
GASTEIGER

@<TRIPOS>ATOM
      1 N         142.4384  141.2988  162.2329 N.am    1  UNL1       -0.2794
      2 C         143.3833  140.4825  161.4017 C.2     1  UNL1        0.2495
      3 O         144.8297  140.3864  161.7871 O.2     1  UNL1       -0.2698
      4 H         141.4890  141.3620  161.9799 H       1  UNL1        0.1552
      5 N         143.7976  143.9580  161.9480 N.pl3   1  UNL1       -0.3560
      6 C         143.6195  143.3485  163.3069 C.ar    1  UNL1        0.0552
      7 C         144.1211  144.0686  164.5234 C.ar    1  UNL1        0.0153
      8 C         143.9429  143.4590  165.8824 C.ar    1  UNL1        0.0013
      9 C         143.2633  142.1295  166.0248 C.ar    1  UNL1        0.0013
     10 C         142.7618  141.4094  164.8083 C.ar    1  UNL1        0.0159
     11 C         142.9399  142.0189  163.4494 C.ar    1  UNL1        0.0636
     12 H         144.2437  144.8307  161.8545 H       1  UNL1        0.1424
     13 H         143.4685  143.4854  161.1495 H       1  UNL1        0.1424
     14 C         143.0852  141.5199  167.3838 C.ar    1  UNL1        0.0000
     15 C         142.6139  140.1018  167.5139 C.ar    1  UNL1        0.0000
     16 C         142.4358  139.4923  168.8729 C.ar    1  UNL1        0.0000
     17 C         142.7290  140.3009  170.1017 C.ar    1  UNL1        0.0000
     18 C         143.2003  141.7190  169.9717 C.ar    1  UNL1        0.0000
     19 C         143.3784  142.3285  168.6127 C.ar    1  UNL1        0.0000
     20 C         142.8818  139.7624  160.1852 C.ar    1  UNL1        0.0537
     21 C         143.5802  139.9369  158.8692 C.ar    1  UNL1        0.0047
     22 C         143.0786  139.2167  157.6527 C.ar    1  UNL1        0.0047
     23 C         141.8788  138.3220  157.7522 C.ar    1  UNL1        0.0536
     24 C         141.1804  138.1475  159.0682 C.ar    1  UNL1        0.0047
     25 C         141.6820  138.8677  160.2847 C.ar    1  UNL1        0.0047
     26 C         141.3773  137.6019  156.5357 C.2     1  UNL1        0.2490
     27 O         140.3174  138.2268  155.6779 O.2     1  UNL1       -0.2699
     28 N         141.9359  136.2567  156.1770 N.am    1  UNL1       -0.2760
     29 C         141.4345  135.5365  154.9605 C.3     1  UNL1        0.0950
     30 C         141.9931  134.1914  154.6019 C.3     1  UNL1        0.0360
     31 C         143.0530  133.5664  155.4597 C.3     1  UNL1        0.0452
     32 C         144.1106  132.8203  156.2179 C.3     1  UNL1        0.0160
     33 C         144.3633  131.5240  155.5066 C.3     1  UNL1        0.0184
     34 C         143.4618  131.4690  154.3090 C.3     1  UNL1        0.0685
     35 N         142.6520  132.7313  154.2800 N.3     1  UNL1       -0.2994
     36 C         143.5544  134.2867  156.6762 C.3     1  UNL1        0.0360
     37 C         142.9958  135.6318  157.0349 C.3     1  UNL1        0.0950
     38 H         141.6587  132.5067  154.3366 H       1  UNL1        0.1232
@<TRIPOS>BOND
     1     5     6    1
     2     6     7   ar
     3     7     8   ar
     4     8     9   ar
     5     9    14    1
     6    14    15   ar
     7    15    16   ar
     8    16    17   ar
     9    17    18   ar
    10    18    19   ar
    11     9    10   ar
    12    10    11   ar
    13    11     1    1
    14     1     2   am
    15     2     3    2
    16     2    20    1
    17    20    21   ar
    18    21    22   ar
    19    22    23   ar
    20    23    26    1
    21    26    27    2
    22    26    28   am
    23    28    29    1
    24    29    30    1
    25    30    31    1
    26    31    32    1
    27    32    33    1
    28    33    34    1
    29    34    35    1
    30    31    36    1
    31    36    37    1
    32    23    24   ar
    33    24    25   ar
    34    11     6   ar
    35    25    20   ar
    36    19    14   ar
    37    37    28    1
    38    35    31    1
    39     5    12    1
    40     5    13    1
    41     1     4    1
    42    35    38    1
@<TRIPOS>MOLECULE
*****
 38 42 0 0 0
SMALL
GASTEIGER

@<TRIPOS>ATOM
      1 N         143.1224  138.0037  159.3869 N.am    1  UNL1       -0.2794
      2 C         142.0113  138.1942  160.3764 C.2     1  UNL1        0.2495
      3 O         140.5965  138.3333  159.8978 O.2     1  UNL1       -0.2698
      4 H         144.0510  137.9125  159.7010 H       1  UNL1        0.1552
      5 N         142.5268  140.5337  157.8888 N.pl3   1  UNL1       -0.3560
      6 C         142.5209  139.2173  157.1698 C.ar    1  UNL1        0.0552
      7 C         142.2173  139.1659  155.7018 C.ar    1  UNL1        0.0153
      8 C         142.2114  137.8493  154.9829 C.ar    1  UNL1        0.0013
      9 C         142.5093  136.5844  155.7319 C.ar    1  UNL1        0.0013
     10 C         142.8129  136.6359  157.1999 C.ar    1  UNL1        0.0159
     11 C         142.8188  137.9523  157.9189 C.ar    1  UNL1        0.0636
     12 H         142.3313  141.3640  157.3972 H       1  UNL1        0.1424
     13 H         142.7261  140.5675  158.8523 H       1  UNL1        0.1424
     14 C         142.5034  135.2679  155.0129 C.ar    1  UNL1        0.0000
     15 C         141.9302  135.1709  153.6302 C.ar    1  UNL1        0.0000
     16 C         141.9244  133.8544  152.9113 C.ar    1  UNL1        0.0000
     17 C         142.4919  132.6349  153.5752 C.ar    1  UNL1        0.0000
     18 C         143.0651  132.7319  154.9580 C.ar    1  UNL1        0.0000
     19 C         143.0709  134.0484  155.6768 C.ar    1  UNL1        0.0000
     20 C         142.3148  138.2457  161.8445 C.ar    1  UNL1        0.0537
     21 C         143.5407  138.9592  162.3324 C.ar    1  UNL1        0.0047
     22 C         143.8441  139.0106  163.8005 C.ar    1  UNL1        0.0047
     23 C         142.9217  138.3484  164.7807 C.ar    1  UNL1        0.0536
     24 C         141.6959  137.6349  164.2927 C.ar    1  UNL1        0.0047
     25 C         141.3924  137.5835  162.8247 C.ar    1  UNL1        0.0047
     26 C         143.2252  138.3999  166.2487 C.2     1  UNL1        0.2490
     27 O         144.1104  137.3595  166.8685 O.2     1  UNL1       -0.2699
     28 N         142.6436  139.4917  167.0970 N.am    1  UNL1       -0.2760
     29 C         142.9471  139.5433  168.5651 C.3     1  UNL1        0.0950
     30 C         142.3654  140.6351  169.4133 C.3     1  UNL1        0.0360
     31 C         141.4803  141.6755  168.7935 C.3     1  UNL1        0.0452
     32 C         140.5832  142.7791  168.3168 C.3     1  UNL1        0.0160
     33 C         140.2421  143.6411  169.4961 C.3     1  UNL1        0.0184
     34 C         140.9283  143.0702  170.7016 C.3     1  UNL1        0.0685
     35 N         141.6936  141.8553  170.2673 N.3     1  UNL1       -0.2994
     36 C         141.1768  141.6239  167.3254 C.3     1  UNL1        0.0360
     37 C         141.7585  140.5321  166.4772 C.3     1  UNL1        0.0950
     38 H         141.3540  141.0347  170.7689 H       1  UNL1        0.1232
@<TRIPOS>BOND
     1     5     6    1
     2     6     7   ar
     3     7     8   ar
     4     8     9   ar
     5     9    14    1
     6    14    15   ar
     7    15    16   ar
     8    16    17   ar
     9    17    18   ar
    10    18    19   ar
    11     9    10   ar
    12    10    11   ar
    13    11     1    1
    14     1     2   am
    15     2     3    2
    16     2    20    1
    17    20    21   ar
    18    21    22   ar
    19    22    23   ar
    20    23    26    1
    21    26    27    2
    22    26    28   am
    23    28    29    1
    24    29    30    1
    25    30    31    1
    26    31    32    1
    27    32    33    1
    28    33    34    1
    29    34    35    1
    30    31    36    1
    31    36    37    1
    32    23    24   ar
    33    24    25   ar
    34    11     6   ar
    35    25    20   ar
    36    19    14   ar
    37    37    28    1
    38    35    31    1
    39     5    12    1
    40     5    13    1
    41     1     4    1
    42    35    38    1
@<TRIPOS>MOLECULE
*****
 38 42 0 0 0
SMALL
GASTEIGER

@<TRIPOS>ATOM
      1 N         144.1098  140.9524  159.0609 N.am    1  UNL1       -0.2794
      2 C         144.0200  141.8322  160.2725 C.2     1  UNL1        0.2495
      3 O         144.0597  143.3240  160.1208 O.2     1  UNL1       -0.2698
      4 H         144.0837  139.9733  159.1605 H       1  UNL1        0.1552
      5 N         141.6708  141.9490  157.6262 N.pl3   1  UNL1       -0.3560
      6 C         143.0198  142.0628  156.9802 C.ar    1  UNL1        0.0552
      7 C         143.1493  142.6748  155.6169 C.ar    1  UNL1        0.0153
      8 C         144.4984  142.7885  154.9710 C.ar    1  UNL1        0.0013
      9 C         145.7178  142.2903  155.6883 C.ar    1  UNL1        0.0013
     10 C         145.5883  141.6782  157.0516 C.ar    1  UNL1        0.0159
     11 C         144.2393  141.5645  157.6976 C.ar    1  UNL1        0.0636
     12 H         140.8704  142.2760  157.1554 H       1  UNL1        0.1424
     13 H         141.5858  141.5473  158.5210 H       1  UNL1        0.1424
     14 C         147.0668  142.4040  155.0424 C.ar    1  UNL1        0.0000
     15 C         147.2357  143.2238  153.7976 C.ar    1  UNL1        0.0000
     16 C         148.5848  143.3374  153.1517 C.ar    1  UNL1        0.0000
     17 C         149.7649  142.6314  153.7507 C.ar    1  UNL1        0.0000
     18 C         149.5960  141.8116  154.9954 C.ar    1  UNL1        0.0000
     19 C         148.2470  141.6979  155.6413 C.ar    1  UNL1        0.0000
     20 C         143.8905  141.2202  161.6359 C.ar    1  UNL1        0.0537
     21 C         144.9875  141.3952  162.6439 C.ar    1  UNL1        0.0047
     22 C         144.8579  140.7832  164.0072 C.ar    1  UNL1        0.0047
     23 C         143.6313  139.9963  164.3626 C.ar    1  UNL1        0.0536
     24 C         142.5343  139.8214  163.3546 C.ar    1  UNL1        0.0047
     25 C         142.6639  140.4333  161.9913 C.ar    1  UNL1        0.0047
     26 C         143.5018  139.3844  165.7259 C.2     1  UNL1        0.2490
     27 O         144.0896  138.0318  165.9999 O.2     1  UNL1       -0.2699
     28 N         142.7844  140.1250  166.8153 N.am    1  UNL1       -0.2760
     29 C         142.6548  139.5132  168.1787 C.3     1  UNL1        0.0950
     30 C         141.9374  140.2538  169.2681 C.3     1  UNL1        0.0360
     31 C         141.3496  141.6064  168.9941 C.3     1  UNL1        0.0452
     32 C         140.7139  142.9593  168.8696 C.3     1  UNL1        0.0160
     33 C         140.1134  143.3132  170.1978 C.3     1  UNL1        0.0184
     34 C         140.3780  142.1790  171.1432 C.3     1  UNL1        0.0685
     35 N         141.1420  141.1241  170.3992 N.3     1  UNL1       -0.2994
     36 C         141.4792  142.2182  167.6307 C.3     1  UNL1        0.0360
     37 C         142.1966  141.4775  166.5414 C.3     1  UNL1        0.0950
     38 H         140.6113  140.2531  170.3914 H       1  UNL1        0.1232
@<TRIPOS>BOND
     1     5     6    1
     2     6     7   ar
     3     7     8   ar
     4     8     9   ar
     5     9    14    1
     6    14    15   ar
     7    15    16   ar
     8    16    17   ar
     9    17    18   ar
    10    18    19   ar
    11     9    10   ar
    12    10    11   ar
    13    11     1    1
    14     1     2   am
    15     2     3    2
    16     2    20    1
    17    20    21   ar
    18    21    22   ar
    19    22    23   ar
    20    23    26    1
    21    26    27    2
    22    26    28   am
    23    28    29    1
    24    29    30    1
    25    30    31    1
    26    31    32    1
    27    32    33    1
    28    33    34    1
    29    34    35    1
    30    31    36    1
    31    36    37    1
    32    23    24   ar
    33    24    25   ar
    34    11     6   ar
    35    25    20   ar
    36    19    14   ar
    37    37    28    1
    38    35    31    1
    39     5    12    1
    40     5    13    1
    41     1     4    1
    42    35    38    1
@<TRIPOS>MOLECULE
*****
 38 42 0 0 0
SMALL
GASTEIGER

@<TRIPOS>ATOM
      1 N         143.1960  138.1306  158.1034 N.am    1  UNL1       -0.2794
      2 C         142.1048  138.6338  159.0012 C.2     1  UNL1        0.2495
      3 O         140.6804  138.2410  158.7433 O.2     1  UNL1       -0.2698
      4 H         144.1309  138.3884  158.2727 H       1  UNL1        0.1552
      5 N         142.3920  139.3175  155.4681 N.pl3   1  UNL1       -0.3560
      6 C         142.4607  137.8279  155.6300 C.ar    1  UNL1        0.0552
      7 C         142.1273  136.9317  154.4742 C.ar    1  UNL1        0.0153
      8 C         142.1960  135.4420  154.6362 C.ar    1  UNL1        0.0013
      9 C         142.5980  134.8486  155.9538 C.ar    1  UNL1        0.0013
     10 C         142.9313  135.7448  157.1095 C.ar    1  UNL1        0.0159
     11 C         142.8627  137.2344  156.9476 C.ar    1  UNL1        0.0636
     12 H         142.1282  139.7070  154.6033 H       1  UNL1        0.1424
     13 H         142.6108  139.9057  156.2266 H       1  UNL1        0.1424
     14 C         142.6667  133.3589  156.1158 C.ar    1  UNL1        0.0000
     15 C         141.7495  132.4752  155.3234 C.ar    1  UNL1        0.0000
     16 C         141.8182  130.9855  155.4854 C.ar    1  UNL1        0.0000
     17 C         142.8041  130.3796  156.4398 C.ar    1  UNL1        0.0000
     18 C         143.7213  131.2634  157.2322 C.ar    1  UNL1        0.0000
     19 C         143.6525  132.7530  157.0702 C.ar    1  UNL1        0.0000
     20 C         142.4381  139.5301  160.1570 C.ar    1  UNL1        0.0537
     21 C         141.4058  140.4766  160.6942 C.ar    1  UNL1        0.0047
     22 C         141.7391  141.3727  161.8500 C.ar    1  UNL1        0.0047
     23 C         143.1047  141.3223  162.4686 C.ar    1  UNL1        0.0536
     24 C         144.1370  140.3758  161.9314 C.ar    1  UNL1        0.0047
     25 C         143.8037  139.4797  160.7756 C.ar    1  UNL1        0.0047
     26 C         143.4380  142.2185  163.6243 C.2     1  UNL1        0.2490
     27 O         143.9999  143.5867  163.3749 O.2     1  UNL1       -0.2699
     28 N         143.2093  141.7464  165.0297 N.am    1  UNL1       -0.2760
     29 C         143.5425  142.6425  166.1855 C.3     1  UNL1        0.0950
     30 C         143.3138  142.1704  167.5908 C.3     1  UNL1        0.0360
     31 C         142.7519  140.8022  167.8403 C.3     1  UNL1        0.0452
     32 C         142.1993  139.4670  168.2429 C.3     1  UNL1        0.0160
     33 C         142.1415  139.4221  169.7411 C.3     1  UNL1        0.0184
     34 C         142.6583  140.7294  170.2644 C.3     1  UNL1        0.0685
     35 N         143.0355  141.5823  169.0896 N.3     1  UNL1       -0.2994
     36 C         142.4187  139.9061  166.6844 C.3     1  UNL1        0.0360
     37 C         142.6474  140.3782  165.2791 C.3     1  UNL1        0.0950
     38 H         144.0277  141.8146  169.1348 H       1  UNL1        0.1232
@<TRIPOS>BOND
     1     5     6    1
     2     6     7   ar
     3     7     8   ar
     4     8     9   ar
     5     9    14    1
     6    14    15   ar
     7    15    16   ar
     8    16    17   ar
     9    17    18   ar
    10    18    19   ar
    11     9    10   ar
    12    10    11   ar
    13    11     1    1
    14     1     2   am
    15     2     3    2
    16     2    20    1
    17    20    21   ar
    18    21    22   ar
    19    22    23   ar
    20    23    26    1
    21    26    27    2
    22    26    28   am
    23    28    29    1
    24    29    30    1
    25    30    31    1
    26    31    32    1
    27    32    33    1
    28    33    34    1
    29    34    35    1
    30    31    36    1
    31    36    37    1
    32    23    24   ar
    33    24    25   ar
    34    11     6   ar
    35    25    20   ar
    36    19    14   ar
    37    37    28    1
    38    35    31    1
    39     5    12    1
    40     5    13    1
    41     1     4    1
    42    35    38    1
@<TRIPOS>MOLECULE
*****
 38 42 0 0 0
SMALL
GASTEIGER

@<TRIPOS>ATOM
      1 N         139.5500  143.5979  157.2916 N.am    1  UNL1       -0.2794
      2 C         140.4157  143.3767  158.4965 C.2     1  UNL1        0.2495
      3 O         141.7287  144.0917  158.6181 O.2     1  UNL1       -0.2698
      4 H         138.6883  143.1287  157.2118 H       1  UNL1        0.1552
      5 N         141.3695  142.6164  155.1176 N.pl3   1  UNL1       -0.3560
      6 C         140.9072  144.0433  155.1214 C.ar    1  UNL1        0.0552
      7 C         141.3546  144.9795  154.0382 C.ar    1  UNL1        0.0153
      8 C         140.8922  146.4065  154.0420 C.ar    1  UNL1        0.0013
      9 C         139.9825  146.8972  155.1290 C.ar    1  UNL1        0.0013
     10 C         139.5351  145.9611  156.2122 C.ar    1  UNL1        0.0159
     11 C         139.9974  144.5341  156.2084 C.ar    1  UNL1        0.0636
     12 H         141.9666  142.2942  154.4042 H       1  UNL1        0.1424
     13 H         141.0758  142.0019  155.8286 H       1  UNL1        0.1424
     14 C         139.5202  148.3243  155.1328 C.ar    1  UNL1        0.0000
     15 C         139.8868  149.2346  153.9984 C.ar    1  UNL1        0.0000
     16 C         139.4244  150.6615  154.0023 C.ar    1  UNL1        0.0000
     17 C         138.5954  151.1781  155.1406 C.ar    1  UNL1        0.0000
     18 C         138.2288  150.2678  156.2750 C.ar    1  UNL1        0.0000
     19 C         138.6911  148.8409  156.2711 C.ar    1  UNL1        0.0000
     20 C         139.9683  142.4405  159.5798 C.ar    1  UNL1        0.0537
     21 C         138.6187  142.6138  160.2109 C.ar    1  UNL1        0.0047
     22 C         138.1715  141.6776  161.2942 C.ar    1  UNL1        0.0047
     23 C         139.0739  140.5681  161.7464 C.ar    1  UNL1        0.0536
     24 C         140.4236  140.3947  161.1152 C.ar    1  UNL1        0.0047
     25 C         140.8708  141.3309  160.0320 C.ar    1  UNL1        0.0047
     26 C         138.6267  139.6319  162.8296 C.2     1  UNL1        0.2490
     27 O         137.8657  138.3878  162.4788 O.2     1  UNL1       -0.2699
     28 N         138.9403  139.9399  164.2638 N.am    1  UNL1       -0.2760
     29 C         138.4931  139.0038  165.3472 C.3     1  UNL1        0.0950
     30 C         138.8068  139.3118  166.7813 C.3     1  UNL1        0.0360
     31 C         139.5677  140.5559  167.1321 C.3     1  UNL1        0.0452
     32 C         140.3165  141.7554  167.6328 C.3     1  UNL1        0.0160
     33 C         140.3992  141.6593  169.1275 C.3     1  UNL1        0.0184
     34 C         139.7017  140.4005  169.5504 C.3     1  UNL1        0.0685
     35 N         139.1878  139.7186  168.3172 N.3     1  UNL1       -0.2994
     36 C         140.0150  141.4920  166.0487 C.3     1  UNL1        0.0360
     37 C         139.7013  141.1840  164.6146 C.3     1  UNL1        0.0950
     38 H         138.1728  139.6306  168.3677 H       1  UNL1        0.1232
@<TRIPOS>BOND
     1     5     6    1
     2     6     7   ar
     3     7     8   ar
     4     8     9   ar
     5     9    14    1
     6    14    15   ar
     7    15    16   ar
     8    16    17   ar
     9    17    18   ar
    10    18    19   ar
    11     9    10   ar
    12    10    11   ar
    13    11     1    1
    14     1     2   am
    15     2     3    2
    16     2    20    1
    17    20    21   ar
    18    21    22   ar
    19    22    23   ar
    20    23    26    1
    21    26    27    2
    22    26    28   am
    23    28    29    1
    24    29    30    1
    25    30    31    1
    26    31    32    1
    27    32    33    1
    28    33    34    1
    29    34    35    1
    30    31    36    1
    31    36    37    1
    32    23    24   ar
    33    24    25   ar
    34    11     6   ar
    35    25    20   ar
    36    19    14   ar
    37    37    28    1
    38    35    31    1
    39     5    12    1
    40     5    13    1
    41     1     4    1
    42    35    38    1
@<TRIPOS>MOLECULE
*****
 38 42 0 0 0
SMALL
GASTEIGER

@<TRIPOS>ATOM
      1 N         142.1358  138.9764  158.7381 N.am    1  UNL1       -0.2794
      2 C         142.9565  139.2783  159.9569 C.2     1  UNL1        0.2495
      3 O         144.3716  138.7893  160.0482 O.2     1  UNL1       -0.2698
      4 H         141.2071  139.2974  158.6782 H       1  UNL1        0.1552
      5 N         143.5242  140.3880  156.4842 N.pl3   1  UNL1       -0.3560
      6 C         143.4245  138.8913  156.4837 C.ar    1  UNL1        0.0552
      7 C         144.0189  138.1005  155.3563 C.ar    1  UNL1        0.0153
      8 C         143.9191  136.6037  155.3558 C.ar    1  UNL1        0.0013
      9 C         143.2249  135.8980  156.4827 C.ar    1  UNL1        0.0013
     10 C         142.6305  136.6889  157.6102 C.ar    1  UNL1        0.0159
     11 C         142.7303  138.1856  157.6107 C.ar    1  UNL1        0.0636
     12 H         143.9799  140.8512  155.7446 H       1  UNL1        0.1424
     13 H         143.1341  140.9071  157.2242 H       1  UNL1        0.1424
     14 C         143.1251  134.4013  156.4823 C.ar    1  UNL1        0.0000
     15 C         144.0960  133.5845  157.2825 C.ar    1  UNL1        0.0000
     16 C         143.9961  132.0879  157.2820 C.ar    1  UNL1        0.0000
     17 C         142.9254  131.4079  156.4813 C.ar    1  UNL1        0.0000
     18 C         141.9545  132.2247  155.6810 C.ar    1  UNL1        0.0000
     19 C         142.0544  133.7213  155.6815 C.ar    1  UNL1        0.0000
     20 C         142.3622  140.0692  161.0844 C.ar    1  UNL1        0.0537
     21 C         143.0979  141.2523  161.6402 C.ar    1  UNL1        0.0047
     22 C         142.5035  142.0431  162.7677 C.ar    1  UNL1        0.0047
     23 C         141.1733  141.6508  163.3394 C.ar    1  UNL1        0.0536
     24 C         140.4376  140.4677  162.7836 C.ar    1  UNL1        0.0047
     25 C         141.0320  139.6769  161.6561 C.ar    1  UNL1        0.0047
     26 C         140.5790  142.4417  164.4669 C.2     1  UNL1        0.2490
     27 O         139.6303  143.5665  164.1757 O.2     1  UNL1       -0.2699
     28 N         140.9333  142.1077  165.8857 N.am    1  UNL1       -0.2760
     29 C         140.3390  142.8985  167.0133 C.3     1  UNL1        0.0950
     30 C         140.6933  142.5645  168.4320 C.3     1  UNL1        0.0360
     31 C         141.6419  141.4396  168.7232 C.3     1  UNL1        0.0452
     32 C         142.5709  140.3485  169.1665 C.3     1  UNL1        0.0160
     33 C         142.6326  140.3727  170.6650 C.3     1  UNL1        0.0184
     34 C         141.7418  141.4787  171.1479 C.3     1  UNL1        0.0685
     35 N         141.1295  142.1381  169.9478 N.3     1  UNL1       -0.2994
     36 C         142.2362  140.6488  167.5957 C.3     1  UNL1        0.0360
     37 C         141.8819  140.9829  166.1769 C.3     1  UNL1        0.0950
     38 H         141.3944  143.1227  169.9210 H       1  UNL1        0.1232
@<TRIPOS>BOND
     1     5     6    1
     2     6     7   ar
     3     7     8   ar
     4     8     9   ar
     5     9    14    1
     6    14    15   ar
     7    15    16   ar
     8    16    17   ar
     9    17    18   ar
    10    18    19   ar
    11     9    10   ar
    12    10    11   ar
    13    11     1    1
    14     1     2   am
    15     2     3    2
    16     2    20    1
    17    20    21   ar
    18    21    22   ar
    19    22    23   ar
    20    23    26    1
    21    26    27    2
    22    26    28   am
    23    28    29    1
    24    29    30    1
    25    30    31    1
    26    31    32    1
    27    32    33    1
    28    33    34    1
    29    34    35    1
    30    31    36    1
    31    36    37    1
    32    23    24   ar
    33    24    25   ar
    34    11     6   ar
    35    25    20   ar
    36    19    14   ar
    37    37    28    1
    38    35    31    1
    39     5    12    1
    40     5    13    1
    41     1     4    1
    42    35    38    1
