@<TRIPOS>MOLECULE
*****
 38 44 0 0 0
SMALL
GASTEIGER

@<TRIPOS>ATOM
      1 C         139.6714  141.2719  160.8357 C.3     1  UNL1        0.1558
      2 N         140.2593  140.5046  159.6887 N.3     1  UNL1       -0.2809
      3 C         140.4920  139.0281  159.8148 C.3     1  UNL1        0.1166
      4 C         140.1368  138.3189  161.0880 C.3     1  UNL1        0.0511
      5 C         139.5490  139.0862  162.2350 C.2     1  UNL1       -0.0037
      6 C         139.3163  140.5627  162.1089 C.2     1  UNL1        0.0784
      7 N         138.7266  141.0508  163.3989 N.2     1  UNL1       -0.2519
      8 C         138.5949  139.8760  164.3222 C.2     1  UNL1        0.0627
      9 C         138.0778  139.7550  165.7250 C.3     1  UNL1        0.0717
     10 C         138.0689  138.4198  166.4085 C.2     1  UNL1       -0.0198
     11 C         138.5772  137.2057  165.6892 C.2     1  UNL1       -0.0042
     12 C         139.0943  137.3266  164.2864 C.2     1  UNL1        0.0006
     13 C         139.1031  138.6618  163.6029 C.2     1  UNL1        0.0111
     14 H         141.1639  140.9288  159.4835 H       1  UNL1        0.1245
     15 C         139.2761  145.1470  164.4005 C.3     1  UNL1        0.0978
     16 C         138.9614  144.2056  163.2759 C.ar    1  UNL1        0.2369
     17 N         139.8540  143.1142  162.7638 N.ar    1  UNL1       -0.1928
     18 C         139.1432  142.4245  161.6374 C.ar    1  UNL1        0.2023
     19 N         137.8114  143.0895  161.4532 N.ar    1  UNL1       -0.0586
     20 O         137.6991  144.1904  162.4659 O.2     1  UNL1       -0.3373
     21 C         139.8431  142.3813  159.8410 C.ar    1  UNL1        0.0423
     22 C         138.9730  142.6367  158.6461 C.ar    1  UNL1        0.1194
     23 N         139.5073  143.8435  157.9331 N.ar    1  UNL1       -0.1679
     24 N         140.7074  144.3340  158.6874 N.ar    1  UNL1       -0.2476
     25 C         141.5518  145.5199  158.3260 C.3     1  UNL1        0.1537
     26 C         140.9150  143.4304  159.8665 C.ar    1  UNL1        0.0944
     27 C         141.0798  138.2608  158.6677 C.ar    1  UNL1        0.1318
     28 N         140.3554  137.8450  157.4218 N.ar    1  UNL1       -0.2298
     29 C         141.3231  137.1018  156.5493 C.ar    1  UNL1        0.0996
     30 C         142.6455  137.0584  157.2559 C.ar    1  UNL1        0.0927
     31 N         142.4951  137.7747  158.5652 N.ar    1  UNL1       -0.3386
     32 H         143.2014  137.9033  159.2390 H       1  UNL1        0.1672
     33 C         141.0213  136.5065  155.2058 C.ar    1  UNL1        0.0192
     34 C         141.8241  135.3432  154.7036 C.ar    1  UNL1        0.0015
     35 C         141.5223  134.7480  153.3602 C.ar    1  UNL1        0.0000
     36 C         140.4179  135.3160  152.5192 C.ar    1  UNL1        0.0000
     37 C         139.6151  136.4793  153.0215 C.ar    1  UNL1        0.0000
     38 C         139.9169  137.0746  154.3648 C.ar    1  UNL1        0.0015
@<TRIPOS>BOND
     1    15    16    1
     2    16    17   ar
     3    17    18   ar
     4     1    18    1
     5     1    21    1
     6    21    22   ar
     7    22    23   ar
     8    23    24   ar
     9    24    25    1
    10    24    26   ar
    11     1     2    1
    12     2     3    1
    13     3    27    1
    14    27    28   ar
    15    28    29   ar
    16    29    33    1
    17    33    34   ar
    18    34    35   ar
    19    35    36   ar
    20    36    37   ar
    21    37    38   ar
    22    29    30   ar
    23    30    31   ar
    24     3     4    1
    25     4     5    1
    26     5     6    2
    27     6     7    1
    28     7     8    2
    29     8     9    1
    30     9    10    1
    31    10    11    2
    32    11    12    1
    33    12    13    2
    34    18    19   ar
    35    19    20   ar
    36    20    16   ar
    37     6     1    1
    38    13     8    1
    39    26    21   ar
    40    31    27   ar
    41    13     5    1
    42    38    33   ar
    43     2    14    1
    44    31    32    1
@<TRIPOS>MOLECULE
*****
 38 44 0 0 0
SMALL
GASTEIGER

@<TRIPOS>ATOM
      1 C         140.7599  141.1677  159.8465 C.3     1  UNL1        0.1558
      2 N         141.0936  140.0959  158.8516 N.3     1  UNL1       -0.2809
      3 C         142.4079  139.3779  158.9353 C.3     1  UNL1        0.1166
      4 C         143.3885  139.7317  160.0139 C.3     1  UNL1        0.0511
      5 C         143.0548  140.8035  161.0088 C.2     1  UNL1       -0.0037
      6 C         141.7405  141.5215  160.9251 C.2     1  UNL1        0.0784
      7 N         141.6895  142.5261  162.0378 N.2     1  UNL1       -0.2519
      8 C         142.9724  142.4290  162.8091 C.2     1  UNL1        0.0627
      9 C         143.4812  143.1725  164.0084 C.3     1  UNL1        0.0717
     10 C         144.8337  142.8514  164.5716 C.2     1  UNL1       -0.0198
     11 C         145.6775  141.7867  163.9357 C.2     1  UNL1       -0.0042
     12 C         145.1687  141.0432  162.7364 C.2     1  UNL1        0.0006
     13 C         143.8162  141.3644  162.1731 C.2     1  UNL1        0.0111
     14 H         141.0522  140.5278  157.9285 H       1  UNL1        0.1245
     15 C         137.5418  143.6656  163.2058 C.3     1  UNL1        0.0978
     16 C         138.5140  143.3950  162.0961 C.ar    1  UNL1        0.2369
     17 N         139.0582  142.0519  161.7086 N.ar    1  UNL1       -0.1928
     18 C         139.9931  142.2468  160.5520 C.ar    1  UNL1        0.2023
     19 N         140.0269  143.7102  160.2246 N.ar    1  UNL1       -0.0586
     20 O         139.1127  144.4199  161.1789 O.2     1  UNL1       -0.3373
     21 C         139.5130  141.1886  159.0130 C.ar    1  UNL1        0.0423
     22 C         138.3861  140.2014  159.0872 C.ar    1  UNL1        0.1194
     23 N         137.3507  140.6032  158.0789 N.ar    1  UNL1       -0.1679
     24 N         137.8376  141.8388  157.3816 N.ar    1  UNL1       -0.2476
     25 C         137.1152  142.5820  156.2975 C.3     1  UNL1        0.1537
     26 C         139.1740  142.2006  157.9589 C.ar    1  UNL1        0.0944
     27 C         142.7417  138.3060  157.9404 C.ar    1  UNL1        0.1318
     28 N         142.2890  136.8771  157.9987 N.ar    1  UNL1       -0.2298
     29 C         142.8543  136.1629  156.8069 C.ar    1  UNL1        0.0996
     30 C         143.6562  137.1503  156.0120 C.ar    1  UNL1        0.0927
     31 N         143.5866  138.4749  156.7126 N.ar    1  UNL1       -0.3386
     32 H         144.0195  139.3087  156.4182 H       1  UNL1        0.1672
     33 C         142.6529  134.7153  156.4692 C.ar    1  UNL1        0.0192
     34 C         143.3975  133.6574  157.2285 C.ar    1  UNL1        0.0015
     35 C         143.1961  132.2099  156.8909 C.ar    1  UNL1        0.0000
     36 C         142.2501  131.8202  155.7940 C.ar    1  UNL1        0.0000
     37 C         141.5055  132.8780  155.0347 C.ar    1  UNL1        0.0000
     38 C         141.7069  134.3256  155.3723 C.ar    1  UNL1        0.0015
@<TRIPOS>BOND
     1    15    16    1
     2    16    17   ar
     3    17    18   ar
     4     1    18    1
     5     1    21    1
     6    21    22   ar
     7    22    23   ar
     8    23    24   ar
     9    24    25    1
    10    24    26   ar
    11     1     2    1
    12     2     3    1
    13     3    27    1
    14    27    28   ar
    15    28    29   ar
    16    29    33    1
    17    33    34   ar
    18    34    35   ar
    19    35    36   ar
    20    36    37   ar
    21    37    38   ar
    22    29    30   ar
    23    30    31   ar
    24     3     4    1
    25     4     5    1
    26     5     6    2
    27     6     7    1
    28     7     8    2
    29     8     9    1
    30     9    10    1
    31    10    11    2
    32    11    12    1
    33    12    13    2
    34    18    19   ar
    35    19    20   ar
    36    20    16   ar
    37     6     1    1
    38    13     8    1
    39    26    21   ar
    40    31    27   ar
    41    13     5    1
    42    38    33   ar
    43     2    14    1
    44    31    32    1
@<TRIPOS>MOLECULE
*****
 38 44 0 0 0
SMALL
GASTEIGER

@<TRIPOS>ATOM
      1 C         142.5527  139.8161  159.6729 C.3     1  UNL1        0.1558
      2 N         143.2261  140.2991  158.4227 N.3     1  UNL1       -0.2809
      3 C         144.1260  141.4982  158.4710 C.3     1  UNL1        0.1166
      4 C         144.3524  142.2143  159.7695 C.3     1  UNL1        0.0511
      5 C         143.6789  141.7312  161.0197 C.2     1  UNL1       -0.0037
      6 C         142.7791  140.5321  160.9714 C.2     1  UNL1        0.0784
      7 N         142.2555  140.2895  162.3560 N.2     1  UNL1       -0.2519
      8 C         142.8318  141.3387  163.2600 C.2     1  UNL1        0.0627
      9 C         142.6691  141.5978  164.7284 C.3     1  UNL1        0.0717
     10 C         143.3862  142.7480  165.3709 C.2     1  UNL1       -0.0198
     11 C         144.2660  143.6390  164.5450 C.2     1  UNL1       -0.0042
     12 C         144.4286  143.3799  163.0766 C.2     1  UNL1        0.0006
     13 C         143.7115  142.2297  162.4341 C.2     1  UNL1        0.0111
     14 H         142.4866  140.5127  157.7536 H       1  UNL1        0.1245
     15 C         138.4280  138.0283  162.4426 C.3     1  UNL1        0.0978
     16 C         139.8015  138.1622  161.8550 C.ar    1  UNL1        0.2369
     17 N         140.2565  139.2371  160.9129 N.ar    1  UNL1       -0.1928
     18 C         141.6974  138.9840  160.5819 C.ar    1  UNL1        0.2023
     19 N         142.1330  137.7526  161.3195 N.ar    1  UNL1       -0.0586
     20 O         140.9613  137.2447  162.1063 O.2     1  UNL1       -0.3373
     21 C         142.0292  138.8110  158.6902 C.ar    1  UNL1        0.0423
     22 C         140.6564  138.8011  158.0858 C.ar    1  UNL1        0.1194
     23 N         140.5655  137.6233  157.1613 N.ar    1  UNL1       -0.1679
     24 N         141.8821  136.9053  157.1943 N.ar    1  UNL1       -0.2476
     25 C         142.2325  135.6702  156.4187 C.3     1  UNL1        0.1537
     26 C         142.7867  137.6393  158.1393 C.ar    1  UNL1        0.0944
     27 C         144.7996  141.9813  157.2207 C.ar    1  UNL1        0.1318
     28 N         146.2651  141.8863  156.9158 N.ar    1  UNL1       -0.2298
     29 C         146.4971  142.4904  155.5626 C.ar    1  UNL1        0.0996
     30 C         145.1749  142.9589  155.0313 C.ar    1  UNL1        0.0927
     31 N         144.1258  142.6442  156.0561 N.ar    1  UNL1       -0.3386
     32 H         143.1638  142.8387  155.9780 H       1  UNL1        0.1672
     33 C         147.8193  142.6059  154.8635 C.ar    1  UNL1        0.0192
     34 C         147.9733  143.5397  153.6997 C.ar    1  UNL1        0.0015
     35 C         149.2953  143.6552  153.0006 C.ar    1  UNL1        0.0000
     36 C         150.4634  142.8369  153.4653 C.ar    1  UNL1        0.0000
     37 C         150.3094  141.9031  154.6290 C.ar    1  UNL1        0.0000
     38 C         148.9874  141.7876  155.3281 C.ar    1  UNL1        0.0015
@<TRIPOS>BOND
     1    15    16    1
     2    16    17   ar
     3    17    18   ar
     4     1    18    1
     5     1    21    1
     6    21    22   ar
     7    22    23   ar
     8    23    24   ar
     9    24    25    1
    10    24    26   ar
    11     1     2    1
    12     2     3    1
    13     3    27    1
    14    27    28   ar
    15    28    29   ar
    16    29    33    1
    17    33    34   ar
    18    34    35   ar
    19    35    36   ar
    20    36    37   ar
    21    37    38   ar
    22    29    30   ar
    23    30    31   ar
    24     3     4    1
    25     4     5    1
    26     5     6    2
    27     6     7    1
    28     7     8    2
    29     8     9    1
    30     9    10    1
    31    10    11    2
    32    11    12    1
    33    12    13    2
    34    18    19   ar
    35    19    20   ar
    36    20    16   ar
    37     6     1    1
    38    13     8    1
    39    26    21   ar
    40    31    27   ar
    41    13     5    1
    42    38    33   ar
    43     2    14    1
    44    31    32    1
@<TRIPOS>MOLECULE
*****
 38 44 0 0 0
SMALL
GASTEIGER

@<TRIPOS>ATOM
      1 C         141.5720  142.0315  161.7369 C.3     1  UNL1        0.1558
      2 N         141.8047  141.2901  160.4539 N.3     1  UNL1       -0.2809
      3 C         142.3706  139.9013  160.4823 C.3     1  UNL1        0.1166
      4 C         142.7039  139.2539  161.7937 C.3     1  UNL1        0.0511
      5 C         142.4712  139.9953  163.0767 C.2     1  UNL1       -0.0037
      6 C         141.9053  141.3841  163.0484 C.2     1  UNL1        0.0784
      7 N         141.7856  141.8648  164.4642 N.2     1  UNL1       -0.2519
      8 C         142.2776  140.7731  165.3676 C.2     1  UNL1        0.0627
      9 C         142.3945  140.6819  166.8602 C.3     1  UNL1        0.0717
     10 C         142.9352  139.4352  167.4953 C.2     1  UNL1       -0.0198
     11 C         143.3589  138.2797  166.6378 C.2     1  UNL1       -0.0042
     12 C         143.2420  138.3710  165.1452 C.2     1  UNL1        0.0006
     13 C         142.7014  139.6176  164.5101 C.2     1  UNL1        0.0111
     14 H         142.4444  141.8575  159.8979 H       1  UNL1        0.1245
     15 C         138.8263  144.9564  165.1701 C.3     1  UNL1        0.0978
     16 C         139.9138  144.4748  164.2562 C.ar    1  UNL1        0.2369
     17 N         139.8873  143.2156  163.4413 N.ar    1  UNL1       -0.1928
     18 C         141.1757  143.1303  162.6781 C.ar    1  UNL1        0.2023
     19 N         141.9986  144.3366  163.0213 N.ar    1  UNL1       -0.0586
     20 O         141.2186  145.1675  163.9966 O.2     1  UNL1       -0.3373
     21 C         141.1011  143.0606  160.7524 C.ar    1  UNL1        0.0423
     22 C         139.6733  143.4286  160.4767 C.ar    1  UNL1        0.1194
     23 N         139.6652  144.4978  159.4246 N.ar    1  UNL1       -0.1679
     24 N         141.0879  144.7905  159.0501 N.ar    1  UNL1       -0.2476
     25 C         141.5432  145.7951  158.0336 C.3     1  UNL1        0.1537
     26 C         141.9753  143.9023  159.8708 C.ar    1  UNL1        0.0944
     27 C         142.6034  139.1599  159.1992 C.ar    1  UNL1        0.1318
     28 N         142.2583  137.7241  158.9356 N.ar    1  UNL1       -0.2298
     29 C         142.6636  137.4009  157.5281 C.ar    1  UNL1        0.0996
     30 C         143.2592  138.6369  156.9218 C.ar    1  UNL1        0.0927
     31 N         143.2220  139.7240  157.9546 N.ar    1  UNL1       -0.3386
     32 H         143.5465  140.6459  157.8364 H       1  UNL1        0.1672
     33 C         142.5018  136.0745  156.8465 C.ar    1  UNL1        0.0192
     34 C         141.4875  135.9117  155.7535 C.ar    1  UNL1        0.0015
     35 C         141.3256  134.5854  155.0719 C.ar    1  UNL1        0.0000
     36 C         142.1781  133.4218  155.4833 C.ar    1  UNL1        0.0000
     37 C         143.1924  133.5846  156.5763 C.ar    1  UNL1        0.0000
     38 C         143.3543  134.9109  157.2579 C.ar    1  UNL1        0.0015
@<TRIPOS>BOND
     1    15    16    1
     2    16    17   ar
     3    17    18   ar
     4     1    18    1
     5     1    21    1
     6    21    22   ar
     7    22    23   ar
     8    23    24   ar
     9    24    25    1
    10    24    26   ar
    11     1     2    1
    12     2     3    1
    13     3    27    1
    14    27    28   ar
    15    28    29   ar
    16    29    33    1
    17    33    34   ar
    18    34    35   ar
    19    35    36   ar
    20    36    37   ar
    21    37    38   ar
    22    29    30   ar
    23    30    31   ar
    24     3     4    1
    25     4     5    1
    26     5     6    2
    27     6     7    1
    28     7     8    2
    29     8     9    1
    30     9    10    1
    31    10    11    2
    32    11    12    1
    33    12    13    2
    34    18    19   ar
    35    19    20   ar
    36    20    16   ar
    37     6     1    1
    38    13     8    1
    39    26    21   ar
    40    31    27   ar
    41    13     5    1
    42    38    33   ar
    43     2    14    1
    44    31    32    1
@<TRIPOS>MOLECULE
*****
 38 44 0 0 0
SMALL
GASTEIGER

@<TRIPOS>ATOM
      1 C         142.4528  142.6368  160.1437 C.3     1  UNL1        0.1558
      2 N         141.9207  143.2657  158.8901 N.3     1  UNL1       -0.2809
      3 C         140.7391  144.1873  158.9566 C.3     1  UNL1        0.1166
      4 C         140.0895  144.4800  160.2766 C.3     1  UNL1        0.0511
      5 C         140.6216  143.8511  161.5302 C.2     1  UNL1       -0.0037
      6 C         141.8032  142.9295  161.4637 C.2     1  UNL1        0.0784
      7 N         142.1038  142.4601  162.8563 N.2     1  UNL1       -0.2519
      8 C         141.1080  143.0916  163.7834 C.2     1  UNL1        0.0627
      9 C         140.9170  142.9949  165.2680 C.3     1  UNL1        0.0717
     10 C         139.8100  143.7578  165.9330 C.2     1  UNL1       -0.0198
     11 C         138.8939  144.6175  165.1134 C.2     1  UNL1       -0.0042
     12 C         139.0848  144.7142  163.6288 C.2     1  UNL1        0.0006
     13 C         140.1919  143.9513  162.9638 C.2     1  UNL1        0.0111
     14 H         141.6641  142.5026  158.2639 H       1  UNL1        0.1245
     15 C         144.1820  138.7044  163.2139 C.3     1  UNL1        0.0978
     16 C         144.1092  139.9986  162.4592 C.ar    1  UNL1        0.2369
     17 N         142.9616  140.4615  161.6114 N.ar    1  UNL1       -0.1928
     18 C         143.3144  141.8061  161.0479 C.ar    1  UNL1        0.2023
     19 N         144.6800  142.1742  161.5474 N.ar    1  UNL1       -0.0586
     20 O         145.1712  141.0571  162.4196 O.2     1  UNL1       -0.3373
     21 C         143.4016  142.0556  159.1377 C.ar    1  UNL1        0.0423
     22 C         143.4187  140.6335  158.6608 C.ar    1  UNL1        0.1194
     23 N         144.5276  140.4935  157.6604 N.ar    1  UNL1       -0.1679
     24 N         145.1958  141.8290  157.5190 N.ar    1  UNL1       -0.2476
     25 C         146.3561  142.1438  156.6222 C.3     1  UNL1        0.1537
     26 C         144.4999  142.7944  158.4321 C.ar    1  UNL1        0.0944
     27 C         140.2070  144.8162  157.7030 C.ar    1  UNL1        0.1318
     28 N         140.4125  146.2390  157.2747 N.ar    1  UNL1       -0.2298
     29 C         139.7085  146.4349  155.9647 C.ar    1  UNL1        0.0996
     30 C         139.0679  145.1332  155.5835 C.ar    1  UNL1        0.0927
     31 N         139.3760  144.1328  156.6579 N.ar    1  UNL1       -0.3386
     32 H         139.0841  143.1928  156.6742 H       1  UNL1        0.1672
     33 C         139.6546  147.7089  155.1746 C.ar    1  UNL1        0.0192
     34 C         140.3042  147.7822  153.8246 C.ar    1  UNL1        0.0015
     35 C         140.2503  149.0561  153.0345 C.ar    1  UNL1        0.0000
     36 C         139.5468  150.2567  153.5945 C.ar    1  UNL1        0.0000
     37 C         138.8972  150.1834  154.9445 C.ar    1  UNL1        0.0000
     38 C         138.9511  148.9095  155.7346 C.ar    1  UNL1        0.0015
@<TRIPOS>BOND
     1    15    16    1
     2    16    17   ar
     3    17    18   ar
     4     1    18    1
     5     1    21    1
     6    21    22   ar
     7    22    23   ar
     8    23    24   ar
     9    24    25    1
    10    24    26   ar
    11     1     2    1
    12     2     3    1
    13     3    27    1
    14    27    28   ar
    15    28    29   ar
    16    29    33    1
    17    33    34   ar
    18    34    35   ar
    19    35    36   ar
    20    36    37   ar
    21    37    38   ar
    22    29    30   ar
    23    30    31   ar
    24     3     4    1
    25     4     5    1
    26     5     6    2
    27     6     7    1
    28     7     8    2
    29     8     9    1
    30     9    10    1
    31    10    11    2
    32    11    12    1
    33    12    13    2
    34    18    19   ar
    35    19    20   ar
    36    20    16   ar
    37     6     1    1
    38    13     8    1
    39    26    21   ar
    40    31    27   ar
    41    13     5    1
    42    38    33   ar
    43     2    14    1
    44    31    32    1
@<TRIPOS>MOLECULE
*****
 38 44 0 0 0
SMALL
GASTEIGER

@<TRIPOS>ATOM
      1 C         141.8158  142.0921  160.1547 C.3     1  UNL1        0.1558
      2 N         141.0518  141.6037  158.9599 N.3     1  UNL1       -0.2809
      3 C         139.5534  141.6713  158.9489 C.3     1  UNL1        0.1166
      4 C         138.8190  142.2273  160.1328 C.3     1  UNL1        0.0511
      5 C         139.5830  142.7157  161.3276 C.2     1  UNL1       -0.0037
      6 C         141.0814  142.6481  161.3386 C.2     1  UNL1        0.0784
      7 N         141.5607  143.2008  162.6481 N.2     1  UNL1       -0.2519
      8 C         140.3585  143.6099  163.4465 C.2     1  UNL1        0.0627
      9 C         140.2189  144.2166  164.8111 C.3     1  UNL1        0.0717
     10 C         138.8570  144.5236  165.3596 C.2     1  UNL1       -0.0198
     11 C         137.6347  144.2239  164.5435 C.2     1  UNL1       -0.0042
     12 C         137.7743  143.6171  163.1789 C.2     1  UNL1        0.0006
     13 C         139.1362  143.3101  162.6304 C.2     1  UNL1        0.0111
     14 H         141.3033  140.6238  158.8300 H       1  UNL1        0.1245
     15 C         145.8087  141.6504  163.5814 C.3     1  UNL1        0.0978
     16 C         144.8100  142.2250  162.6211 C.ar    1  UNL1        0.2369
     17 N         143.7401  141.4606  161.8993 N.ar    1  UNL1       -0.1928
     18 C         142.9747  142.4280  161.0460 C.ar    1  UNL1        0.2023
     19 N         143.5715  143.7903  161.2404 N.ar    1  UNL1       -0.0586
     20 O         144.7058  143.6649  162.2138 O.2     1  UNL1       -0.3373
     21 C         142.9527  141.6528  159.2804 C.ar    1  UNL1        0.0423
     22 C         143.3417  140.2342  158.9865 C.ar    1  UNL1        0.1194
     23 N         144.5296  140.2596  158.0709 N.ar    1  UNL1       -0.1679
     24 N         144.8748  141.6938  157.7990 N.ar    1  UNL1       -0.2476
     25 C         145.9974  142.1813  156.9320 C.3     1  UNL1        0.1537
     26 C         143.9002  142.5548  158.5466 C.ar    1  UNL1        0.0944
     27 C         138.7893  141.1829  157.7540 C.ar    1  UNL1        0.1318
     28 N         137.5109  141.7642  157.2271 N.ar    1  UNL1       -0.2298
     29 C         137.1009  140.9681  156.0238 C.ar    1  UNL1        0.0996
     30 C         138.1260  139.8947  155.8070 C.ar    1  UNL1        0.0927
     31 N         139.1695  140.0274  156.8763 N.ar    1  UNL1       -0.3386
     32 H         139.9643  139.4565  156.9833 H       1  UNL1        0.1672
     33 C         135.8802  141.2039  155.1845 C.ar    1  UNL1        0.0192
     34 C         134.5192  140.9046  155.7396 C.ar    1  UNL1        0.0015
     35 C         133.2985  141.1405  154.9005 C.ar    1  UNL1        0.0000
     36 C         133.4388  141.6756  153.5062 C.ar    1  UNL1        0.0000
     37 C         134.7998  141.9748  152.9511 C.ar    1  UNL1        0.0000
     38 C         136.0205  141.7390  153.7903 C.ar    1  UNL1        0.0015
@<TRIPOS>BOND
     1    15    16    1
     2    16    17   ar
     3    17    18   ar
     4     1    18    1
     5     1    21    1
     6    21    22   ar
     7    22    23   ar
     8    23    24   ar
     9    24    25    1
    10    24    26   ar
    11     1     2    1
    12     2     3    1
    13     3    27    1
    14    27    28   ar
    15    28    29   ar
    16    29    33    1
    17    33    34   ar
    18    34    35   ar
    19    35    36   ar
    20    36    37   ar
    21    37    38   ar
    22    29    30   ar
    23    30    31   ar
    24     3     4    1
    25     4     5    1
    26     5     6    2
    27     6     7    1
    28     7     8    2
    29     8     9    1
    30     9    10    1
    31    10    11    2
    32    11    12    1
    33    12    13    2
    34    18    19   ar
    35    19    20   ar
    36    20    16   ar
    37     6     1    1
    38    13     8    1
    39    26    21   ar
    40    31    27   ar
    41    13     5    1
    42    38    33   ar
    43     2    14    1
    44    31    32    1
@<TRIPOS>MOLECULE
*****
 38 44 0 0 0
SMALL
GASTEIGER

@<TRIPOS>ATOM
      1 C         139.8195  140.3170  160.4396 C.3     1  UNL1        0.1558
      2 N         140.5289  140.3054  161.7612 N.3     1  UNL1       -0.2809
      3 C         141.7620  139.4709  161.9432 C.3     1  UNL1        0.1166
      4 C         142.2857  138.6479  160.8037 C.3     1  UNL1        0.0511
      5 C         141.5762  138.6595  159.4821 C.2     1  UNL1       -0.0037
      6 C         140.3432  139.4940  159.3001 C.2     1  UNL1        0.0784
      7 N         139.8601  139.3063  157.8924 N.2     1  UNL1       -0.2519
      8 C         140.7947  138.3558  157.2045 C.2     1  UNL1        0.0627
      9 C         140.8169  137.8027  155.8104 C.3     1  UNL1        0.0717
     10 C         141.8997  136.8498  155.3988 C.2     1  UNL1       -0.0198
     11 C         142.9603  136.4500  156.3813 C.2     1  UNL1       -0.0042
     12 C         142.9381  137.0031  157.7754 C.2     1  UNL1        0.0006
     13 C         141.8553  137.9560  158.1870 C.2     1  UNL1        0.0111
     14 H         139.8529  139.9872  162.4555 H       1  UNL1        0.1245
     15 C         137.2809  142.7815  156.5202 C.3     1  UNL1        0.0978
     16 C         137.6391  141.7878  157.5852 C.ar    1  UNL1        0.2369
     17 N         138.8458  141.8449  158.4744 N.ar    1  UNL1       -0.1928
     18 C         138.8060  140.6551  159.3867 C.ar    1  UNL1        0.2023
     19 N         137.5748  139.8625  159.0615 N.ar    1  UNL1       -0.0586
     20 O         136.8535  140.5626  157.9480 O.2     1  UNL1       -0.3373
     21 C         138.9439  141.2573  161.2135 C.ar    1  UNL1        0.0423
     22 C         137.6292  140.9158  161.8499 C.ar    1  UNL1        0.1194
     23 N         137.1020  142.1519  162.5165 N.ar    1  UNL1       -0.1679
     24 N         138.0908  143.2572  162.2921 N.ar    1  UNL1       -0.2476
     25 C         137.9636  144.6677  162.7862 C.3     1  UNL1        0.1537
     26 C         139.2292  142.7044  161.4868 C.ar    1  UNL1        0.0944
     27 C         142.4715  139.4594  163.2648 C.ar    1  UNL1        0.1318
     28 N         141.9842  140.0960  164.5326 N.ar    1  UNL1       -0.2298
     29 C         143.0043  139.8393  165.6020 C.ar    1  UNL1        0.0996
     30 C         144.1220  139.0440  164.9951 C.ar    1  UNL1        0.0927
     31 N         143.7927  138.8092  163.5506 N.ar    1  UNL1       -0.3386
     32 H         144.3464  138.3151  162.9037 H       1  UNL1        0.1672
     33 C         142.9213  140.2974  167.0279 C.ar    1  UNL1        0.0192
     34 C         143.0757  141.7524  167.3584 C.ar    1  UNL1        0.0015
     35 C         142.9927  142.2106  168.7842 C.ar    1  UNL1        0.0000
     36 C         142.7552  141.2138  169.8796 C.ar    1  UNL1        0.0000
     37 C         142.6008  139.7588  169.5492 C.ar    1  UNL1        0.0000
     38 C         142.6838  139.3006  168.1233 C.ar    1  UNL1        0.0015
@<TRIPOS>BOND
     1    15    16    1
     2    16    17   ar
     3    17    18   ar
     4     1    18    1
     5     1    21    1
     6    21    22   ar
     7    22    23   ar
     8    23    24   ar
     9    24    25    1
    10    24    26   ar
    11     1     2    1
    12     2     3    1
    13     3    27    1
    14    27    28   ar
    15    28    29   ar
    16    29    33    1
    17    33    34   ar
    18    34    35   ar
    19    35    36   ar
    20    36    37   ar
    21    37    38   ar
    22    29    30   ar
    23    30    31   ar
    24     3     4    1
    25     4     5    1
    26     5     6    2
    27     6     7    1
    28     7     8    2
    29     8     9    1
    30     9    10    1
    31    10    11    2
    32    11    12    1
    33    12    13    2
    34    18    19   ar
    35    19    20   ar
    36    20    16   ar
    37     6     1    1
    38    13     8    1
    39    26    21   ar
    40    31    27   ar
    41    13     5    1
    42    38    33   ar
    43     2    14    1
    44    31    32    1
@<TRIPOS>MOLECULE
*****
 38 44 0 0 0
SMALL
GASTEIGER

@<TRIPOS>ATOM
      1 C         141.2861  140.2453  159.9350 C.3     1  UNL1        0.1558
      2 N         141.7976  139.0045  159.2652 N.3     1  UNL1       -0.2809
      3 C         142.4057  139.0873  157.8965 C.3     1  UNL1        0.1166
      4 C         142.5022  140.4110  157.1976 C.3     1  UNL1        0.0511
      5 C         141.9907  141.6519  157.8674 C.2     1  UNL1       -0.0037
      6 C         141.3827  141.5690  159.2361 C.2     1  UNL1        0.0784
      7 N         140.9669  142.9516  159.6430 N.2     1  UNL1       -0.2519
      8 C         141.3181  143.8890  158.5258 C.2     1  UNL1        0.0627
      9 C         141.1434  145.3701  158.3660 C.3     1  UNL1        0.0717
     10 C         141.6014  146.0480  157.1088 C.2     1  UNL1       -0.0198
     11 C         142.2342  145.2447  156.0114 C.2     1  UNL1       -0.0042
     12 C         142.4089  143.7635  156.1712 C.2     1  UNL1        0.0006
     13 C         141.9508  143.0857  157.4284 C.2     1  UNL1        0.0111
     14 H         141.0101  138.3596  159.1990 H       1  UNL1        0.1245
     15 C         137.7270  142.8392  162.8479 C.3     1  UNL1        0.0978
     16 C         139.0304  142.3260  162.3116 C.ar    1  UNL1        0.2369
     17 N         139.1982  141.3731  161.1654 N.ar    1  UNL1       -0.1928
     18 C         140.6663  141.1337  160.9727 C.ar    1  UNL1        0.2023
     19 N         141.4060  141.9386  161.9998 N.ar    1  UNL1       -0.0586
     20 O         140.3949  142.6755  162.8273 O.2     1  UNL1       -0.3373
     21 C         140.9743  139.2302  160.9943 C.ar    1  UNL1        0.0423
     22 C         139.8197  138.2726  160.9853 C.ar    1  UNL1        0.1194
     23 N         139.8942  137.4450  162.2341 N.ar    1  UNL1       -0.1679
     24 N         141.0947  137.8910  163.0149 N.ar    1  UNL1       -0.2476
     25 C         141.5482  137.3319  164.3309 C.3     1  UNL1        0.1537
     26 C         141.7623  138.9943  162.2487 C.ar    1  UNL1        0.0944
     27 C         142.9172  137.8464  157.2267 C.ar    1  UNL1        0.1318
     28 N         142.6109  136.4353  157.6327 N.ar    1  UNL1       -0.2298
     29 C         143.3292  135.5156  156.6902 C.ar    1  UNL1        0.0996
     30 C         144.0794  136.3583  155.7018 C.ar    1  UNL1        0.0927
     31 N         143.8248  137.7989  156.0334 N.ar    1  UNL1       -0.3386
     32 H         144.1894  138.5766  155.5523 H       1  UNL1        0.1672
     33 C         143.3020  134.0163  156.7293 C.ar    1  UNL1        0.0192
     34 C         142.2384  133.2658  155.9841 C.ar    1  UNL1        0.0015
     35 C         142.2111  131.7666  156.0232 C.ar    1  UNL1        0.0000
     36 C         143.2476  131.0179  156.8075 C.ar    1  UNL1        0.0000
     37 C         144.3113  131.7684  157.5527 C.ar    1  UNL1        0.0000
     38 C         144.3385  133.2676  157.5136 C.ar    1  UNL1        0.0015
@<TRIPOS>BOND
     1    15    16    1
     2    16    17   ar
     3    17    18   ar
     4     1    18    1
     5     1    21    1
     6    21    22   ar
     7    22    23   ar
     8    23    24   ar
     9    24    25    1
    10    24    26   ar
    11     1     2    1
    12     2     3    1
    13     3    27    1
    14    27    28   ar
    15    28    29   ar
    16    29    33    1
    17    33    34   ar
    18    34    35   ar
    19    35    36   ar
    20    36    37   ar
    21    37    38   ar
    22    29    30   ar
    23    30    31   ar
    24     3     4    1
    25     4     5    1
    26     5     6    2
    27     6     7    1
    28     7     8    2
    29     8     9    1
    30     9    10    1
    31    10    11    2
    32    11    12    1
    33    12    13    2
    34    18    19   ar
    35    19    20   ar
    36    20    16   ar
    37     6     1    1
    38    13     8    1
    39    26    21   ar
    40    31    27   ar
    41    13     5    1
    42    38    33   ar
    43     2    14    1
    44    31    32    1
@<TRIPOS>MOLECULE
*****
 38 44 0 0 0
SMALL
GASTEIGER

@<TRIPOS>ATOM
      1 C         141.1254  141.5667  160.7284 C.3     1  UNL1        0.1558
      2 N         141.0982  140.7881  159.4467 N.3     1  UNL1       -0.2809
      3 C         140.5401  139.3960  159.4265 C.3     1  UNL1        0.1166
      4 C         140.0090  138.7825  160.6881 C.3     1  UNL1        0.0511
      5 C         140.0361  139.5611  161.9699 C.2     1  UNL1       -0.0037
      6 C         140.5943  140.9532  161.9900 C.2     1  UNL1        0.0784
      7 N         140.4901  141.4741  163.3928 N.2     1  UNL1       -0.2519
      8 C         139.8675  140.4038  164.2396 C.2     1  UNL1        0.0627
      9 C         139.5198  140.3532  165.6979 C.3     1  UNL1        0.0717
     10 C         138.8916  139.1202  166.2766 C.2     1  UNL1       -0.0198
     11 C         138.6110  137.9379  165.3972 C.2     1  UNL1       -0.0042
     12 C         138.9587  137.9886  163.9389 C.2     1  UNL1        0.0006
     13 C         139.5869  139.2216  163.3602 C.2     1  UNL1        0.0111
     14 H         142.0627  140.7234  159.1210 H       1  UNL1        0.1245
     15 C         143.4926  144.8914  164.0785 C.3     1  UNL1        0.0978
     16 C         142.4539  144.2227  163.2277 C.ar    1  UNL1        0.2369
     17 N         142.6690  143.0221  162.3545 N.ar    1  UNL1       -0.1928
     18 C         141.3659  142.6945  161.6879 C.ar    1  UNL1        0.2023
     19 N         140.3454  143.6924  162.1490 N.ar    1  UNL1       -0.0586
     20 O         141.0179  144.6369  163.1007 O.2     1  UNL1       -0.3373
     21 C         141.7399  142.5719  159.8001 C.ar    1  UNL1        0.0423
     22 C         143.1434  142.5414  159.2716 C.ar    1  UNL1        0.1194
     23 N         143.3298  143.7348  158.3820 N.ar    1  UNL1       -0.1679
     24 N         142.0415  144.5028  158.3608 N.ar    1  UNL1       -0.2476
     25 C         141.7815  145.7674  157.5973 C.3     1  UNL1        0.1537
     26 C         141.0589  143.7841  159.2372 C.ar    1  UNL1        0.0944
     27 C         140.5129  138.6173  158.1446 C.ar    1  UNL1        0.1318
     28 N         139.4190  138.6459  157.1188 N.ar    1  UNL1       -0.2298
     29 C         139.8049  137.7196  156.0038 C.ar    1  UNL1        0.0996
     30 C         141.1373  137.1187  156.3406 C.ar    1  UNL1        0.0927
     31 N         141.5749  137.6735  157.6637 N.ar    1  UNL1       -0.3386
     32 H         142.4121  137.4563  158.1340 H       1  UNL1        0.1672
     33 C         138.9996  137.4430  154.7688 C.ar    1  UNL1        0.0192
     34 C         137.5688  137.8865  154.6914 C.ar    1  UNL1        0.0015
     35 C         136.7636  137.6099  153.4565 C.ar    1  UNL1        0.0000
     36 C         137.3892  136.8897  152.2990 C.ar    1  UNL1        0.0000
     37 C         138.8200  136.4461  152.3764 C.ar    1  UNL1        0.0000
     38 C         139.6253  136.7228  153.6113 C.ar    1  UNL1        0.0015
@<TRIPOS>BOND
     1    15    16    1
     2    16    17   ar
     3    17    18   ar
     4     1    18    1
     5     1    21    1
     6    21    22   ar
     7    22    23   ar
     8    23    24   ar
     9    24    25    1
    10    24    26   ar
    11     1     2    1
    12     2     3    1
    13     3    27    1
    14    27    28   ar
    15    28    29   ar
    16    29    33    1
    17    33    34   ar
    18    34    35   ar
    19    35    36   ar
    20    36    37   ar
    21    37    38   ar
    22    29    30   ar
    23    30    31   ar
    24     3     4    1
    25     4     5    1
    26     5     6    2
    27     6     7    1
    28     7     8    2
    29     8     9    1
    30     9    10    1
    31    10    11    2
    32    11    12    1
    33    12    13    2
    34    18    19   ar
    35    19    20   ar
    36    20    16   ar
    37     6     1    1
    38    13     8    1
    39    26    21   ar
    40    31    27   ar
    41    13     5    1
    42    38    33   ar
    43     2    14    1
    44    31    32    1
