@<TRIPOS>MOLECULE
*****
 34 39 0 0 0
SMALL
GASTEIGER

@<TRIPOS>ATOM
      1 C         142.0597  139.9910  160.7150 C.3     1  UNL1        0.1161
      2 C         142.5125  139.3633  161.9999 C.3     1  UNL1        0.0510
      3 C         142.2093  140.0310  163.3084 C.2     1  UNL1       -0.0044
      4 C         141.4533  141.3263  163.3320 C.2     1  UNL1        0.0689
      5 N         141.3018  141.7486  164.7633 N.2     1  UNL1       -0.2526
      6 C         141.9642  140.7143  165.6244 C.2     1  UNL1        0.0627
      7 C         142.1291  140.6019  167.1110 C.3     1  UNL1        0.0717
      8 C         142.8549  139.4280  167.6984 C.2     1  UNL1       -0.0198
      9 C         143.4158  138.3665  166.7993 C.2     1  UNL1       -0.0042
     10 C         143.2509  138.4788  165.3126 C.2     1  UNL1        0.0006
     11 C         142.5251  139.6527  164.7252 C.2     1  UNL1        0.0111
     12 C         141.0005  141.9540  162.0470 C.3     1  UNL1        0.0949
     13 N         141.3037  141.2863  160.7385 N.3     1  UNL1       -0.2887
     14 H         141.8436  141.9524  160.1862 H       1  UNL1        0.1239
     15 C         142.4861  137.6729  157.6311 C.ar    1  UNL1        0.0770
     16 C         143.1731  138.9183  157.1547 C.ar    1  UNL1        0.1171
     17 N         143.0970  139.9383  158.2519 N.ar    1  UNL1       -0.2282
     18 C         142.3630  139.3232  159.4064 C.ar    1  UNL1        0.1318
     19 N         141.9854  137.9231  159.0227 N.ar    1  UNL1       -0.3397
     20 H         141.4951  137.2812  159.5855 H       1  UNL1        0.1671
     21 C         143.0418  133.9476  156.3807 C.ar    1  UNL1        0.1388
     22 C         142.0105  133.8561  155.2953 C.ar    1  UNL1        0.0369
     23 C         141.1378  135.0368  154.9885 C.ar    1  UNL1        0.0032
     24 C         141.2963  136.3090  155.7671 C.ar    1  UNL1        0.0017
     25 C         142.3276  136.4006  156.8525 C.ar    1  UNL1        0.0202
     26 C         143.2003  135.2199  157.1593 C.ar    1  UNL1        0.0384
     27 C         144.8149  132.7912  157.8870 C.3     1  UNL1        0.2525
     28 O         143.9146  132.7668  156.6875 O.3     1  UNL1       -0.4714
     29 C         140.2444  143.2493  162.0706 C.3     1  UNL1        0.0252
     30 C         140.8296  144.4710  161.4266 C.3     1  UNL1        0.0339
     31 C         140.0735  145.7664  161.4501 C.3     1  UNL1        0.1422
     32 O         138.7323  145.8399  162.1177 O.3     1  UNL1       -0.3538
     33 C         138.1471  144.6180  162.7618 C.3     1  UNL1        0.1422
     34 C         138.9031  143.3228  162.7382 C.3     1  UNL1        0.0339
@<TRIPOS>BOND
     1    27    28    1
     2    28    21    1
     3    21    22   ar
     4    22    23   ar
     5    23    24   ar
     6    24    25   ar
     7    25    15    1
     8    15    16   ar
     9    16    17   ar
    10    17    18   ar
    11     1    18    1
    12     1     2    1
    13     2     3    1
    14     3     4    2
    15     4     5    1
    16     5     6    2
    17     6     7    1
    18     7     8    1
    19     8     9    2
    20     9    10    1
    21    10    11    2
    22     4    12    1
    23    12    29    1
    24    29    30    1
    25    30    31    1
    26    31    32    1
    27    32    33    1
    28    33    34    1
    29    12    13    1
    30    18    19   ar
    31    25    26   ar
    32    26    21   ar
    33    19    15   ar
    34    13     1    1
    35    11     3    1
    36    34    29    1
    37    11     6    1
    38    13    14    1
    39    19    20    1
@<TRIPOS>MOLECULE
*****
 34 39 0 0 0
SMALL
GASTEIGER

@<TRIPOS>ATOM
      1 C         139.3006  139.7258  157.4984 C.3     1  UNL1        0.1161
      2 C         138.9933  139.6212  158.9628 C.3     1  UNL1        0.0510
      3 C         138.6924  140.8581  159.7562 C.2     1  UNL1       -0.0044
      4 C         138.6989  142.1996  159.0851 C.2     1  UNL1        0.0689
      5 N         138.3669  143.2359  160.1176 N.2     1  UNL1       -0.2526
      6 C         138.1553  142.5349  161.4267 C.2     1  UNL1        0.0627
      7 C         137.8054  143.0449  162.7932 C.3     1  UNL1        0.0717
      8 C         137.6567  142.0853  163.9364 C.2     1  UNL1       -0.0198
      9 C         137.8579  140.6157  163.7131 C.2     1  UNL1       -0.0042
     10 C         138.2077  140.1057  162.3466 C.2     1  UNL1        0.0006
     11 C         138.3565  141.0653  161.2034 C.2     1  UNL1        0.0111
     12 C         139.0062  142.3042  157.6207 C.3     1  UNL1        0.0949
     13 N         139.3071  141.0673  156.8273 N.3     1  UNL1       -0.2887
     14 H         140.2374  141.1924  156.4283 H       1  UNL1        0.1239
     15 C         140.6851  136.4755  155.8908 C.ar    1  UNL1        0.0770
     16 C         139.4439  136.6952  155.0776 C.ar    1  UNL1        0.1171
     17 N         138.7742  137.9394  155.5808 N.ar    1  UNL1       -0.2282
     18 C         139.6015  138.4888  156.7050 C.ar    1  UNL1        0.1318
     19 N         140.7824  137.5841  156.8966 N.ar    1  UNL1       -0.3397
     20 H         141.4962  137.6979  157.5651 H       1  UNL1        0.1671
     21 C         143.5869  133.8828  156.6700 C.ar    1  UNL1        0.1388
     22 C         143.6040  133.0861  155.3992 C.ar    1  UNL1        0.0369
     23 C         142.6482  133.4192  154.2923 C.ar    1  UNL1        0.0032
     24 C         141.6752  134.5490  154.4561 C.ar    1  UNL1        0.0017
     25 C         141.6581  135.3457  155.7269 C.ar    1  UNL1        0.0202
     26 C         142.6139  135.0126  156.8339 C.ar    1  UNL1        0.0384
     27 C         145.1268  132.1715  157.8742 C.3     1  UNL1        0.2525
     28 O         144.5428  133.5496  157.7770 O.3     1  UNL1       -0.4714
     29 C         139.0127  143.6457  156.9496 C.3     1  UNL1        0.0252
     30 C         139.9995  144.6922  157.3747 C.3     1  UNL1        0.0339
     31 C         140.0059  146.0337  156.7036 C.3     1  UNL1        0.1422
     32 O         139.0255  146.3286  155.6073 O.3     1  UNL1       -0.3538
     33 C         138.0386  145.2821  155.1822 C.3     1  UNL1        0.1422
     34 C         138.0322  143.9406  155.8533 C.3     1  UNL1        0.0339
@<TRIPOS>BOND
     1    27    28    1
     2    28    21    1
     3    21    22   ar
     4    22    23   ar
     5    23    24   ar
     6    24    25   ar
     7    25    15    1
     8    15    16   ar
     9    16    17   ar
    10    17    18   ar
    11     1    18    1
    12     1     2    1
    13     2     3    1
    14     3     4    2
    15     4     5    1
    16     5     6    2
    17     6     7    1
    18     7     8    1
    19     8     9    2
    20     9    10    1
    21    10    11    2
    22     4    12    1
    23    12    29    1
    24    29    30    1
    25    30    31    1
    26    31    32    1
    27    32    33    1
    28    33    34    1
    29    12    13    1
    30    18    19   ar
    31    25    26   ar
    32    26    21   ar
    33    19    15   ar
    34    13     1    1
    35    11     3    1
    36    34    29    1
    37    11     6    1
    38    13    14    1
    39    19    20    1
@<TRIPOS>MOLECULE
*****
 34 39 0 0 0
SMALL
GASTEIGER

@<TRIPOS>ATOM
      1 C         142.5185  136.8001  157.5125 C.3     1  UNL1        0.1161
      2 C         143.2467  135.5028  157.3210 C.3     1  UNL1        0.0510
      3 C         142.8533  134.5793  156.2064 C.2     1  UNL1       -0.0044
      4 C         141.7317  134.9532  155.2833 C.2     1  UNL1        0.0689
      5 N         141.5689  133.8492  154.2809 N.2     1  UNL1       -0.2526
      6 C         142.5900  132.7932  154.5844 C.2     1  UNL1        0.0627
      7 C         142.8995  131.4790  153.9310 C.3     1  UNL1        0.0717
      8 C         144.0028  130.6160  154.4676 C.2     1  UNL1       -0.0198
      9 C         144.7966  131.0673  155.6576 C.2     1  UNL1       -0.0042
     10 C         144.4871  132.3814  156.3111 C.2     1  UNL1        0.0006
     11 C         143.3838  133.2444  155.7745 C.2     1  UNL1        0.0111
     12 C         141.0034  136.2505  155.4748 C.3     1  UNL1        0.0949
     13 N         141.3968  137.1740  156.5894 N.3     1  UNL1       -0.2887
     14 H         140.5685  137.3041  157.1702 H       1  UNL1        0.1239
     15 C         143.2812  138.6397  160.8442 C.ar    1  UNL1        0.0770
     16 C         143.7535  139.6496  159.8408 C.ar    1  UNL1        0.1171
     17 N         143.5253  139.0835  158.4706 N.ar    1  UNL1       -0.2282
     18 C         142.9119  137.7237  158.6272 C.ar    1  UNL1        0.1318
     19 N         142.7610  137.4493  160.0941 N.ar    1  UNL1       -0.3397
     20 H         142.3864  136.6316  160.4944 H       1  UNL1        0.1671
     21 C         142.1690  138.5677  164.6531 C.ar    1  UNL1        0.1388
     22 C         143.4032  139.0999  165.3189 C.ar    1  UNL1        0.0369
     23 C         144.5968  139.4787  164.4932 C.ar    1  UNL1        0.0032
     24 C         144.5561  139.3253  163.0016 C.ar    1  UNL1        0.0017
     25 C         143.3218  138.7931  162.3358 C.ar    1  UNL1        0.0202
     26 C         142.1283  138.4143  163.1615 C.ar    1  UNL1        0.0384
     27 C         139.7246  137.7014  164.8097 C.3     1  UNL1        0.2525
     28 O         140.9754  138.1889  165.4789 O.3     1  UNL1       -0.4714
     29 C         139.8818  136.6243  154.5517 C.3     1  UNL1        0.0252
     30 C         138.6360  137.2532  155.1015 C.3     1  UNL1        0.0339
     31 C         137.5143  137.6271  154.1783 C.3     1  UNL1        0.1422
     32 O         137.6385  137.3719  152.7054 O.3     1  UNL1       -0.3538
     33 C         138.8843  136.7429  152.1556 C.3     1  UNL1        0.1422
     34 C         140.0059  136.3691  153.0787 C.3     1  UNL1        0.0339
@<TRIPOS>BOND
     1    27    28    1
     2    28    21    1
     3    21    22   ar
     4    22    23   ar
     5    23    24   ar
     6    24    25   ar
     7    25    15    1
     8    15    16   ar
     9    16    17   ar
    10    17    18   ar
    11     1    18    1
    12     1     2    1
    13     2     3    1
    14     3     4    2
    15     4     5    1
    16     5     6    2
    17     6     7    1
    18     7     8    1
    19     8     9    2
    20     9    10    1
    21    10    11    2
    22     4    12    1
    23    12    29    1
    24    29    30    1
    25    30    31    1
    26    31    32    1
    27    32    33    1
    28    33    34    1
    29    12    13    1
    30    18    19   ar
    31    25    26   ar
    32    26    21   ar
    33    19    15   ar
    34    13     1    1
    35    11     3    1
    36    34    29    1
    37    11     6    1
    38    13    14    1
    39    19    20    1
@<TRIPOS>MOLECULE
*****
 34 39 0 0 0
SMALL
GASTEIGER

@<TRIPOS>ATOM
      1 C         142.0269  139.6312  161.1371 C.3     1  UNL1        0.1161
      2 C         141.0506  138.8631  161.9779 C.3     1  UNL1        0.0510
      3 C         140.7022  139.3477  163.3540 C.2     1  UNL1       -0.0044
      4 C         141.3301  140.6003  163.8894 C.2     1  UNL1        0.0689
      5 N         140.7968  140.8317  165.2721 N.2     1  UNL1       -0.2526
      6 C         139.8393  139.7221  165.5914 C.2     1  UNL1        0.0627
      7 C         139.0131  139.4284  166.8084 C.3     1  UNL1        0.0717
      8 C         138.1284  138.2175  166.8399 C.2     1  UNL1       -0.0198
      9 C         138.0699  137.3003  165.6544 C.2     1  UNL1       -0.0042
     10 C         138.8961  137.5940  164.4374 C.2     1  UNL1        0.0006
     11 C         139.7808  138.8049  164.4059 C.2     1  UNL1        0.0111
     12 C         142.3064  141.3684  163.0486 C.3     1  UNL1        0.0949
     13 N         142.6548  140.8838  161.6724 N.3     1  UNL1       -0.2887
     14 H         143.6640  140.7363  161.6589 H       1  UNL1        0.1239
     15 C         142.7957  137.6931  157.8632 C.ar    1  UNL1        0.0770
     16 C         143.0269  139.1084  157.4233 C.ar    1  UNL1        0.1171
     17 N         142.7670  140.0067  158.5961 N.ar    1  UNL1       -0.2282
     18 C         142.3752  139.1466  159.7609 C.ar    1  UNL1        0.1318
     19 N         142.3929  137.7167  159.3079 N.ar    1  UNL1       -0.3397
     20 H         142.1779  136.9316  159.8616 H       1  UNL1        0.1671
     21 C         143.3997  133.9215  156.7863 C.ar    1  UNL1        0.1388
     22 C         143.2333  134.0213  155.2989 C.ar    1  UNL1        0.0369
     23 C         142.9211  135.3450  154.6662 C.ar    1  UNL1        0.0032
     24 C         142.7752  136.5689  155.5210 C.ar    1  UNL1        0.0017
     25 C         142.9416  136.4691  157.0084 C.ar    1  UNL1        0.0202
     26 C         143.2538  135.1454  157.6410 C.ar    1  UNL1        0.0384
     27 C         145.1082  132.2958  157.8763 C.3     1  UNL1        0.2525
     28 O         143.7120  132.5977  157.4189 O.3     1  UNL1       -0.4714
     29 C         142.9344  142.6210  163.5839 C.3     1  UNL1        0.0252
     30 C         143.9410  142.5405  164.6930 C.3     1  UNL1        0.0339
     31 C         144.5689  143.7933  165.2283 C.3     1  UNL1        0.1422
     32 O         144.1902  145.1264  164.6545 O.3     1  UNL1       -0.3538
     33 C         143.1835  145.2069  163.5453 C.3     1  UNL1        0.1422
     34 C         142.5556  143.9543  163.0101 C.3     1  UNL1        0.0339
@<TRIPOS>BOND
     1    27    28    1
     2    28    21    1
     3    21    22   ar
     4    22    23   ar
     5    23    24   ar
     6    24    25   ar
     7    25    15    1
     8    15    16   ar
     9    16    17   ar
    10    17    18   ar
    11     1    18    1
    12     1     2    1
    13     2     3    1
    14     3     4    2
    15     4     5    1
    16     5     6    2
    17     6     7    1
    18     7     8    1
    19     8     9    2
    20     9    10    1
    21    10    11    2
    22     4    12    1
    23    12    29    1
    24    29    30    1
    25    30    31    1
    26    31    32    1
    27    32    33    1
    28    33    34    1
    29    12    13    1
    30    18    19   ar
    31    25    26   ar
    32    26    21   ar
    33    19    15   ar
    34    13     1    1
    35    11     3    1
    36    34    29    1
    37    11     6    1
    38    13    14    1
    39    19    20    1
@<TRIPOS>MOLECULE
*****
 34 39 0 0 0
SMALL
GASTEIGER

@<TRIPOS>ATOM
      1 C         143.0779  139.3087  158.0453 C.3     1  UNL1        0.1161
      2 C         142.3009  140.4927  157.5508 C.3     1  UNL1        0.0510
      3 C         142.1714  141.7162  158.4088 C.2     1  UNL1       -0.0044
      4 C         142.8189  141.7558  159.7612 C.2     1  UNL1        0.0689
      5 N         142.5213  143.0900  160.3787 N.2     1  UNL1       -0.2526
      6 C         141.6898  143.8750  159.4079 C.2     1  UNL1        0.0627
      7 C         141.1017  145.2532  159.4753 C.3     1  UNL1        0.0717
      8 C         140.2973  145.7824  158.3251 C.2     1  UNL1       -0.0198
      9 C         140.0811  144.9333  157.1076 C.2     1  UNL1       -0.0042
     10 C         140.6692  143.5551  157.0402 C.2     1  UNL1        0.0006
     11 C         141.4736  143.0259  158.1904 C.2     1  UNL1        0.0111
     12 C         143.5959  140.5718  160.2557 C.3     1  UNL1        0.0949
     13 N         143.7254  139.3482  159.3978 N.3     1  UNL1       -0.2887
     14 H         143.3377  138.5711  159.9327 H       1  UNL1        0.1239
     15 C         143.2148  135.7725  156.4510 C.ar    1  UNL1        0.0770
     16 C         143.5983  136.6320  155.2831 C.ar    1  UNL1        0.1171
     17 N         143.5937  138.0613  155.7381 N.ar    1  UNL1       -0.2282
     18 C         143.2074  138.0851  157.1873 C.ar    1  UNL1        0.1318
     19 N         142.9732  136.6705  157.6279 N.ar    1  UNL1       -0.3397
     20 H         142.7075  136.3822  158.5310 H       1  UNL1        0.1671
     21 C         143.9150  131.9496  157.2543 C.ar    1  UNL1        0.1388
     22 C         142.8526  131.2871  156.4282 C.ar    1  UNL1        0.0369
     23 C         141.9109  132.1197  155.6097 C.ar    1  UNL1        0.0032
     24 C         142.0317  133.6148  155.6173 C.ar    1  UNL1        0.0017
     25 C         143.0941  134.2773  156.4434 C.ar    1  UNL1        0.0202
     26 C         144.0357  133.4447  157.2619 C.ar    1  UNL1        0.0384
     27 C         144.5052  129.6977  158.4078 C.3     1  UNL1        0.2525
     28 O         144.8566  131.1169  158.0728 O.3     1  UNL1       -0.4714
     29 C         144.2434  140.6114  161.6082 C.3     1  UNL1        0.0252
     30 C         145.0732  141.7951  162.0081 C.3     1  UNL1        0.0339
     31 C         145.7207  141.8346  163.3606 C.3     1  UNL1        0.1422
     32 O         145.5384  140.6904  164.3132 O.3     1  UNL1       -0.3538
     33 C         144.7086  139.5065  163.9132 C.3     1  UNL1        0.1422
     34 C         144.0611  139.4670  162.5608 C.3     1  UNL1        0.0339
@<TRIPOS>BOND
     1    27    28    1
     2    28    21    1
     3    21    22   ar
     4    22    23   ar
     5    23    24   ar
     6    24    25   ar
     7    25    15    1
     8    15    16   ar
     9    16    17   ar
    10    17    18   ar
    11     1    18    1
    12     1     2    1
    13     2     3    1
    14     3     4    2
    15     4     5    1
    16     5     6    2
    17     6     7    1
    18     7     8    1
    19     8     9    2
    20     9    10    1
    21    10    11    2
    22     4    12    1
    23    12    29    1
    24    29    30    1
    25    30    31    1
    26    31    32    1
    27    32    33    1
    28    33    34    1
    29    12    13    1
    30    18    19   ar
    31    25    26   ar
    32    26    21   ar
    33    19    15   ar
    34    13     1    1
    35    11     3    1
    36    34    29    1
    37    11     6    1
    38    13    14    1
    39    19    20    1
@<TRIPOS>MOLECULE
*****
 34 39 0 0 0
SMALL
GASTEIGER

@<TRIPOS>ATOM
      1 C         143.3354  140.0988  158.0582 C.3     1  UNL1        0.1161
      2 C         143.9126  140.1449  159.4420 C.3     1  UNL1        0.0510
      3 C         143.7521  141.3779  160.2809 C.2     1  UNL1       -0.0044
      4 C         143.0144  142.5649  159.7361 C.2     1  UNL1        0.0689
      5 N         143.0152  143.6341  160.7881 N.2     1  UNL1       -0.2526
      6 C         143.7535  143.1079  161.9832 C.2     1  UNL1        0.0627
      7 C         144.0699  143.7183  163.3163 C.3     1  UNL1        0.0717
      8 C         144.8417  142.9343  164.3359 C.2     1  UNL1       -0.0198
      9 C         145.2971  141.5399  164.0224 C.2     1  UNL1       -0.0042
     10 C         144.9807  140.9295  162.6893 C.2     1  UNL1        0.0006
     11 C         144.2089  141.7135  161.6697 C.2     1  UNL1        0.0111
     12 C         142.4371  142.5188  158.3523 C.3     1  UNL1        0.0949
     13 N         142.5976  141.2858  157.5134 N.3     1  UNL1       -0.2887
     14 H         143.0837  141.5696  156.6628 H       1  UNL1        0.1239
     15 C         143.3014  136.5889  156.4016 C.ar    1  UNL1        0.0770
     16 C         144.1842  137.3474  155.4554 C.ar    1  UNL1        0.1171
     17 N         144.3044  138.7546  155.9608 N.ar    1  UNL1       -0.2282
     18 C         143.4959  138.8657  157.2193 C.ar    1  UNL1        0.1318
     19 N         142.8760  137.5272  157.4918 N.ar    1  UNL1       -0.3397
     20 H         142.2924  137.3038  158.2525 H       1  UNL1        0.1671
     21 C         143.3056  132.6498  156.8852 C.ar    1  UNL1        0.1388
     22 C         142.1341  132.2585  156.0340 C.ar    1  UNL1        0.0369
     23 C         141.3517  133.3106  155.3054 C.ar    1  UNL1        0.0032
     24 C         141.7408  134.7540  155.4279 C.ar    1  UNL1        0.0017
     25 C         142.9123  135.1453  156.2791 C.ar    1  UNL1        0.0202
     26 C         143.6947  134.0933  157.0077 C.ar    1  UNL1        0.0384
     27 C         145.4982  131.8745  158.0433 C.3     1  UNL1        0.2525
     28 O         144.0880  131.5976  157.6138 O.3     1  UNL1       -0.4714
     29 C         141.6994  143.7058  157.8075 C.3     1  UNL1        0.0252
     30 C         142.4283  144.9932  157.5605 C.3     1  UNL1        0.0339
     31 C         141.6905  146.1802  157.0156 C.3     1  UNL1        0.1422
     32 O         140.2238  146.0797  156.7178 O.3     1  UNL1       -0.3538
     33 C         139.4949  144.7922  156.9649 C.3     1  UNL1        0.1422
     34 C         140.2326  143.6053  157.5097 C.3     1  UNL1        0.0339
@<TRIPOS>BOND
     1    27    28    1
     2    28    21    1
     3    21    22   ar
     4    22    23   ar
     5    23    24   ar
     6    24    25   ar
     7    25    15    1
     8    15    16   ar
     9    16    17   ar
    10    17    18   ar
    11     1    18    1
    12     1     2    1
    13     2     3    1
    14     3     4    2
    15     4     5    1
    16     5     6    2
    17     6     7    1
    18     7     8    1
    19     8     9    2
    20     9    10    1
    21    10    11    2
    22     4    12    1
    23    12    29    1
    24    29    30    1
    25    30    31    1
    26    31    32    1
    27    32    33    1
    28    33    34    1
    29    12    13    1
    30    18    19   ar
    31    25    26   ar
    32    26    21   ar
    33    19    15   ar
    34    13     1    1
    35    11     3    1
    36    34    29    1
    37    11     6    1
    38    13    14    1
    39    19    20    1
@<TRIPOS>MOLECULE
*****
 34 39 0 0 0
SMALL
GASTEIGER

@<TRIPOS>ATOM
      1 C         140.1679  142.0941  159.6997 C.3     1  UNL1        0.1161
      2 C         139.7250  141.7463  161.0900 C.3     1  UNL1        0.0510
      3 C         139.6955  140.3130  161.5312 C.2     1  UNL1       -0.0044
      4 C         140.1088  139.2274  160.5822 C.2     1  UNL1        0.0689
      5 N         139.9771  137.9140  161.2946 N.2     1  UNL1       -0.2526
      6 C         139.4824  138.1878  162.6839 C.2     1  UNL1        0.0627
      7 C         139.1679  137.2786  163.8347 C.3     1  UNL1        0.0717
      8 C         138.6793  137.8520  165.1318 C.2     1  UNL1       -0.0198
      9 C         138.5053  139.3347  165.2781 C.2     1  UNL1       -0.0042
     10 C         138.8198  140.2439  164.1273 C.2     1  UNL1        0.0006
     11 C         139.3083  139.6704  162.8302 C.2     1  UNL1        0.0111
     12 C         140.5517  139.5752  159.1919 C.3     1  UNL1        0.0949
     13 N         140.5813  141.0085  158.7506 N.3     1  UNL1       -0.2887
     14 H         139.9690  141.0791  157.9379 H       1  UNL1        0.1239
     15 C         140.0814  145.5207  157.8787 C.ar    1  UNL1        0.0770
     16 C         140.4045  145.9455  159.2804 C.ar    1  UNL1        0.1171
     17 N         140.4763  144.7137  160.1333 N.ar    1  UNL1       -0.2282
     18 C         140.1975  143.5275  159.2585 C.ar    1  UNL1        0.1318
     19 N         139.9535  144.0262  157.8651 N.ar    1  UNL1       -0.3397
     20 H         139.7458  143.4703  157.0796 H       1  UNL1        0.1671
     21 C         138.9022  148.5727  155.6327 C.ar    1  UNL1        0.1388
     22 C         139.5834  148.2501  154.3358 C.ar    1  UNL1        0.0369
     23 C         140.4305  147.0178  154.2198 C.ar    1  UNL1        0.0032
     24 C         140.5965  146.1080  155.4008 C.ar    1  UNL1        0.0017
     25 C         139.9154  146.4306  156.6977 C.ar    1  UNL1        0.0202
     26 C         139.0682  147.6629  156.8136 C.ar    1  UNL1        0.0384
     27 C         138.6359  151.1483  155.4191 C.3     1  UNL1        0.2525
     28 O         138.0550  149.8052  155.7486 O.3     1  UNL1       -0.4714
     29 C         140.9650  138.4897  158.2428 C.3     1  UNL1        0.0252
     30 C         140.0039  137.9976  157.2017 C.3     1  UNL1        0.0339
     31 C         140.4173  136.9120  156.2526 C.3     1  UNL1        0.1422
     32 O         141.7918  136.3186  156.3447 O.3     1  UNL1       -0.3538
     33 C         142.7531  136.8107  157.3858 C.3     1  UNL1        0.1422
     34 C         142.3397  137.8962  158.3348 C.3     1  UNL1        0.0339
@<TRIPOS>BOND
     1    27    28    1
     2    28    21    1
     3    21    22   ar
     4    22    23   ar
     5    23    24   ar
     6    24    25   ar
     7    25    15    1
     8    15    16   ar
     9    16    17   ar
    10    17    18   ar
    11     1    18    1
    12     1     2    1
    13     2     3    1
    14     3     4    2
    15     4     5    1
    16     5     6    2
    17     6     7    1
    18     7     8    1
    19     8     9    2
    20     9    10    1
    21    10    11    2
    22     4    12    1
    23    12    29    1
    24    29    30    1
    25    30    31    1
    26    31    32    1
    27    32    33    1
    28    33    34    1
    29    12    13    1
    30    18    19   ar
    31    25    26   ar
    32    26    21   ar
    33    19    15   ar
    34    13     1    1
    35    11     3    1
    36    34    29    1
    37    11     6    1
    38    13    14    1
    39    19    20    1
@<TRIPOS>MOLECULE
*****
 34 39 0 0 0
SMALL
GASTEIGER

@<TRIPOS>ATOM
      1 C         142.2192  138.7825  158.5973 C.3     1  UNL1        0.1161
      2 C         142.0953  140.2604  158.3722 C.3     1  UNL1        0.0510
      3 C         141.5258  141.1376  159.4475 C.2     1  UNL1       -0.0044
      4 C         141.0803  140.5370  160.7477 C.2     1  UNL1        0.0689
      5 N         140.5619  141.6446  161.6163 N.2     1  UNL1       -0.2526
      6 C         140.6871  142.9297  160.8529 C.2     1  UNL1        0.0627
      7 C         140.3355  144.3447  161.2052 C.3     1  UNL1        0.0717
      8 C         140.5797  145.4464  160.2170 C.2     1  UNL1       -0.0198
      9 C         141.1755  145.1331  158.8765 C.2     1  UNL1       -0.0042
     10 C         141.5271  143.7181  158.5242 C.2     1  UNL1        0.0006
     11 C         141.2828  142.6164  159.5125 C.2     1  UNL1        0.0111
     12 C         141.2042  139.0591  160.9728 C.3     1  UNL1        0.0949
     13 N         141.7736  138.1819  159.8975 N.3     1  UNL1       -0.2887
     14 H         141.0587  137.4900  159.6726 H       1  UNL1        0.1239
     15 C         143.2815  135.9716  156.1405 C.ar    1  UNL1        0.0770
     16 C         144.0484  137.1391  155.5941 C.ar    1  UNL1        0.1171
     17 N         143.7439  138.3342  156.4479 N.ar    1  UNL1       -0.2282
     18 C         142.7887  137.9053  157.5219 C.ar    1  UNL1        0.1318
     19 N         142.5029  136.4451  157.3320 N.ar    1  UNL1       -0.3397
     20 H         141.9087  135.8942  157.8912 H       1  UNL1        0.1671
     21 C         144.1098  132.1132  155.7205 C.ar    1  UNL1        0.1388
     22 C         143.3111  131.7836  154.4943 C.ar    1  UNL1        0.0369
     23 C         142.5025  132.8500  153.8170 C.ar    1  UNL1        0.0032
     24 C         142.4926  134.2460  154.3657 C.ar    1  UNL1        0.0017
     25 C         143.2914  134.5755  155.5918 C.ar    1  UNL1        0.0202
     26 C         144.1000  133.5091  156.2692 C.ar    1  UNL1        0.0384
     27 C         144.4747  130.4952  157.7203 C.3     1  UNL1        0.2525
     28 O         144.9185  131.0467  156.3979 O.3     1  UNL1       -0.4714
     29 C         140.7586  138.4585  162.2730 C.3     1  UNL1        0.0252
     30 C         139.2957  138.3011  162.5642 C.3     1  UNL1        0.0339
     31 C         138.8501  137.7005  163.8646 C.3     1  UNL1        0.1422
     32 O         139.8676  137.2573  164.8736 O.3     1  UNL1       -0.3538
     33 C         141.3307  137.4146  164.5824 C.3     1  UNL1        0.1422
     34 C         141.7761  138.0153  163.2822 C.3     1  UNL1        0.0339
@<TRIPOS>BOND
     1    27    28    1
     2    28    21    1
     3    21    22   ar
     4    22    23   ar
     5    23    24   ar
     6    24    25   ar
     7    25    15    1
     8    15    16   ar
     9    16    17   ar
    10    17    18   ar
    11     1    18    1
    12     1     2    1
    13     2     3    1
    14     3     4    2
    15     4     5    1
    16     5     6    2
    17     6     7    1
    18     7     8    1
    19     8     9    2
    20     9    10    1
    21    10    11    2
    22     4    12    1
    23    12    29    1
    24    29    30    1
    25    30    31    1
    26    31    32    1
    27    32    33    1
    28    33    34    1
    29    12    13    1
    30    18    19   ar
    31    25    26   ar
    32    26    21   ar
    33    19    15   ar
    34    13     1    1
    35    11     3    1
    36    34    29    1
    37    11     6    1
    38    13    14    1
    39    19    20    1
@<TRIPOS>MOLECULE
*****
 34 39 0 0 0
SMALL
GASTEIGER

@<TRIPOS>ATOM
      1 C         141.1304  139.7661  159.9655 C.3     1  UNL1        0.1161
      2 C         140.6749  138.9227  161.1192 C.3     1  UNL1        0.0510
      3 C         139.9856  139.5607  162.2887 C.2     1  UNL1       -0.0044
      4 C         139.7519  141.0423  162.3045 C.2     1  UNL1        0.0689
      5 N         139.0510  141.3873  163.5850 N.2     1  UNL1       -0.2526
      6 C         138.8516  140.1190  164.3606 C.2     1  UNL1        0.0627
      7 C         138.2187  139.8462  165.6929 C.3     1  UNL1        0.0717
      8 C         138.1635  138.4445  166.2240 C.2     1  UNL1       -0.0198
      9 C         138.7411  137.3156  165.4228 C.2     1  UNL1       -0.0042
     10 C         139.3739  137.5884  164.0906 C.2     1  UNL1        0.0006
     11 C         139.4292  138.9901  163.5595 C.2     1  UNL1        0.0111
     12 C         140.2074  141.8858  161.1508 C.3     1  UNL1        0.0949
     13 N         140.8967  141.2477  159.9813 N.3     1  UNL1       -0.2887
     14 H         141.8118  141.6911  159.9011 H       1  UNL1        0.1239
     15 C         142.5649  137.4879  157.1695 C.ar    1  UNL1        0.0770
     16 C         143.1958  138.8040  156.8232 C.ar    1  UNL1        0.1171
     17 N         142.7352  139.8176  157.8284 N.ar    1  UNL1       -0.2282
     18 C         141.8197  139.1280  158.7960 C.ar    1  UNL1        0.1318
     19 N         141.7144  137.6882  158.3888 N.ar    1  UNL1       -0.3397
     20 H         141.1808  136.9961  158.8422 H       1  UNL1        0.1671
     21 C         143.6341  133.7558  156.3461 C.ar    1  UNL1        0.1388
     22 C         143.1251  133.6184  154.9418 C.ar    1  UNL1        0.0369
     23 C         142.4294  134.7708  154.2801 C.ar    1  UNL1        0.0032
     24 C         142.2426  136.0606  155.0227 C.ar    1  UNL1        0.0017
     25 C         142.7516  136.1980  156.4269 C.ar    1  UNL1        0.0202
     26 C         143.4474  135.0456  157.0887 C.ar    1  UNL1        0.0384
     27 C         144.8289  131.4546  156.1825 C.3     1  UNL1        0.2525
     28 O         144.3298  132.6033  157.0078 O.3     1  UNL1       -0.4714
     29 C         139.9737  143.3674  161.1665 C.3     1  UNL1        0.0252
     30 C         140.3629  144.2007  159.9817 C.3     1  UNL1        0.0339
     31 C         140.1291  145.6824  159.9975 C.3     1  UNL1        0.1422
     32 O         139.5061  146.3306  161.1982 O.3     1  UNL1       -0.3538
     33 C         139.1169  145.4972  162.3831 C.3     1  UNL1        0.1422
     34 C         139.3507  144.0157  162.3673 C.3     1  UNL1        0.0339
@<TRIPOS>BOND
     1    27    28    1
     2    28    21    1
     3    21    22   ar
     4    22    23   ar
     5    23    24   ar
     6    24    25   ar
     7    25    15    1
     8    15    16   ar
     9    16    17   ar
    10    17    18   ar
    11     1    18    1
    12     1     2    1
    13     2     3    1
    14     3     4    2
    15     4     5    1
    16     5     6    2
    17     6     7    1
    18     7     8    1
    19     8     9    2
    20     9    10    1
    21    10    11    2
    22     4    12    1
    23    12    29    1
    24    29    30    1
    25    30    31    1
    26    31    32    1
    27    32    33    1
    28    33    34    1
    29    12    13    1
    30    18    19   ar
    31    25    26   ar
    32    26    21   ar
    33    19    15   ar
    34    13     1    1
    35    11     3    1
    36    34    29    1
    37    11     6    1
    38    13    14    1
    39    19    20    1
