@<TRIPOS>MOLECULE
*****
 19 20 0 0 0
SMALL
GASTEIGER

@<TRIPOS>ATOM
      1 C         140.7035  142.8729  166.2266 C.2     1  UNL1        0.0016
      2 C         141.2923  141.5529  166.6279 C.2     1  UNL1        0.0031
      3 C         141.4918  141.2309  168.0793 C.ar    1  UNL1        0.0380
      4 C         142.6896  141.7641  168.8081 C.ar    1  UNL1        0.1409
      5 F         143.6878  142.6193  168.0855 F       1  UNL1       -0.2041
      6 C         142.8891  141.4420  170.2595 C.ar    1  UNL1        0.0297
      7 C         141.8908  140.5868  170.9821 C.ar    1  UNL1        0.0032
      8 C         140.6931  140.0536  170.2532 C.ar    1  UNL1        0.0115
      9 C         140.4936  140.3757  168.8019 C.ar    1  UNL1        0.0598
     10 CL        139.2959  139.8425  168.0731 Cl      1  UNL1       -0.0822
     11 C         140.1051  143.8390  161.8725 C.ar    1  UNL1        0.1318
     12 C         139.5987  144.7792  162.9258 C.ar    1  UNL1        0.0343
     13 C         139.7982  144.4572  164.3772 C.ar    1  UNL1        0.0044
     14 C         140.5040  143.1949  164.7752 C.ar    1  UNL1        0.0193
     15 C         141.0104  142.2547  163.7219 C.ar    1  UNL1        0.1003
     16 N         140.8109  142.5768  162.2705 N.ar    1  UNL1       -0.2292
     17 C         139.2839  143.1476  159.5066 C.3     1  UNL1        0.1136
     18 N         139.9056  144.1611  160.4211 N.pl3   1  UNL1       -0.2897
     19 C         140.3277  145.4966  159.8843 C.3     1  UNL1        0.1136
@<TRIPOS>BOND
     1    17    18    1
     2    18    19    1
     3    18    11    1
     4    11    12   ar
     5    12    13   ar
     6    13    14   ar
     7    14     1    1
     8     1     2    2
     9     2     3    1
    10     3     4   ar
    11     4     5    1
    12     4     6   ar
    13     6     7   ar
    14     7     8   ar
    15     8     9   ar
    16     9    10    1
    17    14    15   ar
    18    15    16   ar
    19    16    11   ar
    20     9     3   ar
@<TRIPOS>MOLECULE
*****
 19 20 0 0 0
SMALL
GASTEIGER

@<TRIPOS>ATOM
      1 C         140.2850  142.8409  166.4203 C.2     1  UNL1        0.0016
      2 C         140.8965  141.5448  166.8634 C.2     1  UNL1        0.0031
      3 C         140.9984  141.2247  168.3253 C.ar    1  UNL1        0.0380
      4 C         139.9167  140.4312  168.9964 C.ar    1  UNL1        0.1409
      5 F         138.7332  139.9579  168.2057 F       1  UNL1       -0.2041
      6 C         140.0186  140.1110  170.4583 C.ar    1  UNL1        0.0297
      7 C         141.2021  140.5843  171.2491 C.ar    1  UNL1        0.0032
      8 C         142.2837  141.3778  170.5779 C.ar    1  UNL1        0.0115
      9 C         142.1819  141.6980  169.1160 C.ar    1  UNL1        0.0598
     10 CL        143.2635  142.4914  168.4449 Cl      1  UNL1       -0.0822
     11 C         139.9794  143.8014  162.0347 C.ar    1  UNL1        0.1318
     12 C         139.3044  144.6819  163.0441 C.ar    1  UNL1        0.0343
     13 C         139.4063  144.3618  164.5060 C.ar    1  UNL1        0.0044
     14 C         140.1831  143.1610  164.9584 C.ar    1  UNL1        0.0193
     15 C         140.8581  142.2805  163.9490 C.ar    1  UNL1        0.1003
     16 N         140.7562  142.6006  162.4871 N.ar    1  UNL1       -0.2292
     17 C         139.2967  143.1159  159.6234 C.3     1  UNL1        0.1136
     18 N         139.8775  144.1216  160.5728 N.pl3   1  UNL1       -0.2897
     19 C         140.3564  145.4474  160.0602 C.3     1  UNL1        0.1136
@<TRIPOS>BOND
     1    17    18    1
     2    18    19    1
     3    18    11    1
     4    11    12   ar
     5    12    13   ar
     6    13    14   ar
     7    14     1    1
     8     1     2    2
     9     2     3    1
    10     3     4   ar
    11     4     5    1
    12     4     6   ar
    13     6     7   ar
    14     7     8   ar
    15     8     9   ar
    16     9    10    1
    17    14    15   ar
    18    15    16   ar
    19    16    11   ar
    20     9     3   ar
@<TRIPOS>MOLECULE
*****
 19 20 0 0 0
SMALL
GASTEIGER

@<TRIPOS>ATOM
      1 C         142.5344  142.4671  166.0443 C.2     1  UNL1        0.0016
      2 C         141.3760  142.0436  166.8979 C.2     1  UNL1        0.0031
      3 C         141.6112  141.5790  168.3046 C.ar    1  UNL1        0.0380
      4 C         142.3697  140.3100  168.5584 C.ar    1  UNL1        0.1409
      5 F         142.8929  139.5056  167.4055 F       1  UNL1       -0.2041
      6 C         142.6049  139.8454  169.9651 C.ar    1  UNL1        0.0297
      7 C         142.0817  140.6499  171.1180 C.ar    1  UNL1        0.0032
      8 C         141.3233  141.9188  170.8642 C.ar    1  UNL1        0.0115
      9 C         141.0880  142.3834  169.4575 C.ar    1  UNL1        0.0598
     10 CL        140.3296  143.6524  169.2037 Cl      1  UNL1       -0.0822
     11 C         141.8286  143.8608  161.8242 C.ar    1  UNL1        0.1318
     12 C         142.6317  144.7053  162.7685 C.ar    1  UNL1        0.0343
     13 C         142.8670  144.2408  164.1752 C.ar    1  UNL1        0.0044
     14 C         142.2991  142.9317  164.6376 C.ar    1  UNL1        0.0193
     15 C         141.4960  142.0872  163.6933 C.ar    1  UNL1        0.1003
     16 N         141.2608  142.5518  162.2865 N.ar    1  UNL1       -0.2292
     17 C         140.5923  145.4081  160.1427 C.3     1  UNL1        0.1136
     18 N         141.5934  144.3254  160.4175 N.pl3   1  UNL1       -0.2897
     19 C         142.3592  143.7073  159.2855 C.3     1  UNL1        0.1136
@<TRIPOS>BOND
     1    17    18    1
     2    18    19    1
     3    18    11    1
     4    11    12   ar
     5    12    13   ar
     6    13    14   ar
     7    14     1    1
     8     1     2    2
     9     2     3    1
    10     3     4   ar
    11     4     5    1
    12     4     6   ar
    13     6     7   ar
    14     7     8   ar
    15     8     9   ar
    16     9    10    1
    17    14    15   ar
    18    15    16   ar
    19    16    11   ar
    20     9     3   ar
@<TRIPOS>MOLECULE
*****
 19 20 0 0 0
SMALL
GASTEIGER

@<TRIPOS>ATOM
      1 C         142.8860  140.1270  166.2898 C.2     1  UNL1        0.0016
      2 C         141.8093  141.0501  166.7782 C.2     1  UNL1        0.0031
      3 C         141.6976  141.3648  168.2406 C.ar    1  UNL1        0.0380
      4 C         142.7395  142.2138  168.9067 C.ar    1  UNL1        0.1409
      5 F         143.8930  142.7481  168.1106 F       1  UNL1       -0.2041
      6 C         142.6278  142.5286  170.3691 C.ar    1  UNL1        0.0297
      7 C         141.4742  141.9942  171.1653 C.ar    1  UNL1        0.0032
      8 C         140.4324  141.1453  170.4991 C.ar    1  UNL1        0.0115
      9 C         140.5441  140.8305  169.0368 C.ar    1  UNL1        0.0598
     10 CL        139.5023  139.9816  168.3706 Cl      1  UNL1       -0.0822
     11 C         143.2211  139.1828  161.9028 C.ar    1  UNL1        0.1318
     12 C         142.6061  138.1859  162.8396 C.ar    1  UNL1        0.0343
     13 C         142.4944  138.5006  164.3020 C.ar    1  UNL1        0.0044
     14 C         142.9977  139.8122  164.8275 C.ar    1  UNL1        0.0193
     15 C         143.6127  140.8092  163.8906 C.ar    1  UNL1        0.1003
     16 N         143.7244  140.4945  162.4282 N.ar    1  UNL1       -0.2292
     17 C         142.9923  137.4955  159.9405 C.3     1  UNL1        0.1136
     18 N         143.3328  138.8681  160.4404 N.pl3   1  UNL1       -0.2897
     19 C         143.7850  139.9260  159.4780 C.3     1  UNL1        0.1136
@<TRIPOS>BOND
     1    17    18    1
     2    18    19    1
     3    18    11    1
     4    11    12   ar
     5    12    13   ar
     6    13    14   ar
     7    14     1    1
     8     1     2    2
     9     2     3    1
    10     3     4   ar
    11     4     5    1
    12     4     6   ar
    13     6     7   ar
    14     7     8   ar
    15     8     9   ar
    16     9    10    1
    17    14    15   ar
    18    15    16   ar
    19    16    11   ar
    20     9     3   ar
@<TRIPOS>MOLECULE
*****
 19 20 0 0 0
SMALL
GASTEIGER

@<TRIPOS>ATOM
      1 C         139.8059  140.7088  166.4014 C.2     1  UNL1        0.0016
      2 C         141.1097  141.2638  166.8932 C.2     1  UNL1        0.0031
      3 C         141.4794  141.1388  168.3416 C.ar    1  UNL1        0.0380
      4 C         142.2666  139.9529  168.8150 C.ar    1  UNL1        0.1409
      5 F         142.6840  138.8921  167.8401 F       1  UNL1       -0.2041
      6 C         142.6363  139.8278  170.2633 C.ar    1  UNL1        0.0297
      7 C         142.2189  140.8887  171.2382 C.ar    1  UNL1        0.0032
      8 C         141.4318  142.0745  170.7648 C.ar    1  UNL1        0.0115
      9 C         141.0620  142.1996  169.3165 C.ar    1  UNL1        0.0598
     10 CL        140.2749  143.3854  168.8430 Cl      1  UNL1       -0.0822
     11 C         138.6967  141.0839  162.0564 C.ar    1  UNL1        0.1318
     12 C         137.6909  141.4156  163.1186 C.ar    1  UNL1        0.0343
     13 C         138.0606  141.2906  164.5669 C.ar    1  UNL1        0.0044
     14 C         139.4362  140.8338  164.9531 C.ar    1  UNL1        0.0193
     15 C         140.4420  140.5021  163.8909 C.ar    1  UNL1        0.1003
     16 N         140.0723  140.6272  162.4426 N.ar    1  UNL1       -0.2292
     17 C         137.7647  140.0286  159.8730 C.3     1  UNL1        0.1136
     18 N         138.3270  141.2090  160.6081 N.pl3   1  UNL1       -0.2897
     19 C         138.5197  142.5144  159.8948 C.3     1  UNL1        0.1136
@<TRIPOS>BOND
     1    17    18    1
     2    18    19    1
     3    18    11    1
     4    11    12   ar
     5    12    13   ar
     6    13    14   ar
     7    14     1    1
     8     1     2    2
     9     2     3    1
    10     3     4   ar
    11     4     5    1
    12     4     6   ar
    13     6     7   ar
    14     7     8   ar
    15     8     9   ar
    16     9    10    1
    17    14    15   ar
    18    15    16   ar
    19    16    11   ar
    20     9     3   ar
@<TRIPOS>MOLECULE
*****
 19 20 0 0 0
SMALL
GASTEIGER

@<TRIPOS>ATOM
      1 C         141.4508  144.3790  163.7960 C.2     1  UNL1        0.0016
      2 C         141.6839  142.9930  164.3200 C.2     1  UNL1        0.0031
      3 C         141.7823  142.7566  165.7980 C.ar    1  UNL1        0.0380
      4 C         140.5372  142.6965  166.6323 C.ar    1  UNL1        0.1409
      5 F         139.1938  142.8727  165.9887 F       1  UNL1       -0.2041
      6 C         140.6355  142.4601  168.1103 C.ar    1  UNL1        0.0297
      7 C         141.9790  142.2839  168.7539 C.ar    1  UNL1        0.0032
      8 C         143.2240  142.3440  167.9195 C.ar    1  UNL1        0.0115
      9 C         143.1256  142.5803  166.4415 C.ar    1  UNL1        0.0598
     10 CL        144.3707  142.6405  165.6072 Cl      1  UNL1       -0.0822
     11 C         141.1558  145.0881  159.3620 C.ar    1  UNL1        0.1318
     12 C         140.1327  145.6794  160.2858 C.ar    1  UNL1        0.0343
     13 C         140.2310  145.4430  161.7638 C.ar    1  UNL1        0.0044
     14 C         141.3525  144.6153  162.3180 C.ar    1  UNL1        0.0193
     15 C         142.3757  144.0240  161.3942 C.ar    1  UNL1        0.1003
     16 N         142.2773  144.2604  159.9162 N.ar    1  UNL1       -0.2292
     17 C         142.1784  146.0067  157.1574 C.3     1  UNL1        0.1136
     18 N         141.0575  145.3244  157.8840 N.pl3   1  UNL1       -0.2897
     19 C         139.8382  144.8786  157.1326 C.3     1  UNL1        0.1136
@<TRIPOS>BOND
     1    17    18    1
     2    18    19    1
     3    18    11    1
     4    11    12   ar
     5    12    13   ar
     6    13    14   ar
     7    14     1    1
     8     1     2    2
     9     2     3    1
    10     3     4   ar
    11     4     5    1
    12     4     6   ar
    13     6     7   ar
    14     7     8   ar
    15     8     9   ar
    16     9    10    1
    17    14    15   ar
    18    15    16   ar
    19    16    11   ar
    20     9     3   ar
@<TRIPOS>MOLECULE
*****
 19 20 0 0 0
SMALL
GASTEIGER

@<TRIPOS>ATOM
      1 C         142.1990  142.5221  165.9638 C.2     1  UNL1        0.0016
      2 C         140.9540  142.0837  166.6763 C.2     1  UNL1        0.0031
      3 C         141.0196  141.6746  168.1180 C.ar    1  UNL1        0.0380
      4 C         140.5559  142.6189  169.1873 C.ar    1  UNL1        0.1409
      5 F         140.0268  143.9722  168.8150 F       1  UNL1       -0.2041
      6 C         140.6215  142.2099  170.6290 C.ar    1  UNL1        0.0297
      7 C         141.1507  140.8565  171.0013 C.ar    1  UNL1        0.0032
      8 C         141.6143  139.9123  169.9320 C.ar    1  UNL1        0.0115
      9 C         141.5487  140.3214  168.4903 C.ar    1  UNL1        0.0598
     10 CL        142.0123  139.3772  167.4210 Cl      1  UNL1       -0.0822
     11 C         142.0023  143.7492  161.6388 C.ar    1  UNL1        0.1318
     12 C         141.6185  142.3561  162.0413 C.ar    1  UNL1        0.0343
     13 C         141.6841  141.9471  163.4830 C.ar    1  UNL1        0.0044
     14 C         142.1334  142.9311  164.5221 C.ar    1  UNL1        0.0193
     15 C         142.5172  144.3241  164.1195 C.ar    1  UNL1        0.1003
     16 N         142.4516  144.7332  162.6779 N.ar    1  UNL1       -0.2292
     17 C         142.7634  143.4366  159.1744 C.3     1  UNL1        0.1136
     18 N         141.9367  144.1582  160.1971 N.pl3   1  UNL1       -0.2897
     19 C         141.0446  145.2889  159.7781 C.3     1  UNL1        0.1136
@<TRIPOS>BOND
     1    17    18    1
     2    18    19    1
     3    18    11    1
     4    11    12   ar
     5    12    13   ar
     6    13    14   ar
     7    14     1    1
     8     1     2    2
     9     2     3    1
    10     3     4   ar
    11     4     5    1
    12     4     6   ar
    13     6     7   ar
    14     7     8   ar
    15     8     9   ar
    16     9    10    1
    17    14    15   ar
    18    15    16   ar
    19    16    11   ar
    20     9     3   ar
@<TRIPOS>MOLECULE
*****
 19 20 0 0 0
SMALL
GASTEIGER

@<TRIPOS>ATOM
      1 C         141.5944  139.3565  166.1525 C.2     1  UNL1        0.0016
      2 C         140.9647  140.6290  166.6364 C.2     1  UNL1        0.0031
      3 C         140.8947  140.9194  168.1063 C.ar    1  UNL1        0.0380
      4 C         139.7643  140.3714  168.9261 C.ar    1  UNL1        0.1409
      5 F         138.7040  139.5329  168.2759 F       1  UNL1       -0.2041
      6 C         139.6943  140.6618  170.3961 C.ar    1  UNL1        0.0297
      7 C         140.7546  141.5003  171.0462 C.ar    1  UNL1        0.0032
      8 C         141.8849  142.0483  170.2265 C.ar    1  UNL1        0.0115
      9 C         141.9549  141.7579  168.7565 C.ar    1  UNL1        0.0598
     10 CL        143.0852  142.3059  167.9368 Cl      1  UNL1       -0.0822
     11 C         141.8045  138.4853  161.7426 C.ar    1  UNL1        0.1318
     12 C         140.5123  138.9348  162.3576 C.ar    1  UNL1        0.0343
     13 C         140.4423  139.2252  163.8275 C.ar    1  UNL1        0.0044
     14 C         141.6644  139.0661  164.6825 C.ar    1  UNL1        0.0193
     15 C         142.9566  138.6166  164.0676 C.ar    1  UNL1        0.1003
     16 N         143.0266  138.3262  162.5976 N.ar    1  UNL1       -0.2292
     17 C         140.7875  138.6797  159.3598 C.3     1  UNL1        0.1136
     18 N         141.8745  138.1948  160.2727 N.pl3   1  UNL1       -0.2897
     19 C         143.0315  137.4196  159.7156 C.3     1  UNL1        0.1136
@<TRIPOS>BOND
     1    17    18    1
     2    18    19    1
     3    18    11    1
     4    11    12   ar
     5    12    13   ar
     6    13    14   ar
     7    14     1    1
     8     1     2    2
     9     2     3    1
    10     3     4   ar
    11     4     5    1
    12     4     6   ar
    13     6     7   ar
    14     7     8   ar
    15     8     9   ar
    16     9    10    1
    17    14    15   ar
    18    15    16   ar
    19    16    11   ar
    20     9     3   ar
@<TRIPOS>MOLECULE
*****
 19 20 0 0 0
SMALL
GASTEIGER

@<TRIPOS>ATOM
      1 C         141.4286  142.6218  166.1156 C.2     1  UNL1        0.0016
      2 C         141.8191  141.3958  166.8865 C.2     1  UNL1        0.0031
      3 C         141.4191  141.2556  168.3254 C.ar    1  UNL1        0.0380
      4 C         140.1051  140.6253  168.6806 C.ar    1  UNL1        0.1409
      5 F         139.1911  140.1351  167.5969 F       1  UNL1       -0.2041
      6 C         139.7052  140.4851  170.1195 C.ar    1  UNL1        0.0297
      7 C         140.6192  140.9753  171.2032 C.ar    1  UNL1        0.0032
      8 C         141.9332  141.6056  170.8479 C.ar    1  UNL1        0.0115
      9 C         142.3331  141.7457  169.4091 C.ar    1  UNL1        0.0598
     10 CL        143.6471  142.3760  169.0538 Cl      1  UNL1       -0.0822
     11 C         142.6285  143.0423  161.7989 C.ar    1  UNL1        0.1318
     12 C         142.8807  144.1657  162.7603 C.ar    1  UNL1        0.0343
     13 C         142.4807  144.0255  164.1992 C.ar    1  UNL1        0.0044
     14 C         141.8286  142.7620  164.6767 C.ar    1  UNL1        0.0193
     15 C         141.5763  141.6386  163.7153 C.ar    1  UNL1        0.1003
     16 N         141.9763  141.7787  162.2764 N.ar    1  UNL1       -0.2292
     17 C         142.1482  143.9352  159.4068 C.3     1  UNL1        0.1136
     18 N         143.0284  143.1825  160.3600 N.pl3   1  UNL1       -0.2897
     19 C         144.3086  142.5700  159.8743 C.3     1  UNL1        0.1136
@<TRIPOS>BOND
     1    17    18    1
     2    18    19    1
     3    18    11    1
     4    11    12   ar
     5    12    13   ar
     6    13    14   ar
     7    14     1    1
     8     1     2    2
     9     2     3    1
    10     3     4   ar
    11     4     5    1
    12     4     6   ar
    13     6     7   ar
    14     7     8   ar
    15     8     9   ar
    16     9    10    1
    17    14    15   ar
    18    15    16   ar
    19    16    11   ar
    20     9     3   ar
