@<TRIPOS>MOLECULE
*****
 32 36 0 0 0
SMALL
GASTEIGER

@<TRIPOS>ATOM
      1 C         138.4598  139.5230  164.4020 C.ar    1  UNL1        0.1564
      2 C         138.8530  138.0932  164.1760 C.ar    1  UNL1        0.0385
      3 C         139.2089  137.6222  162.7971 C.ar    1  UNL1        0.0033
      4 C         139.1717  138.5809  161.6441 C.ar    1  UNL1        0.0048
      5 C         138.7786  140.0107  161.8701 C.ar    1  UNL1        0.0567
      6 C         138.4226  140.4817  163.2490 C.ar    1  UNL1        0.1209
      7 N         138.0294  141.9116  163.4750 N.ar    1  UNL1       -0.2108
      8 C         137.9922  142.8704  162.3220 C.ar    1  UNL1        0.2163
      9 N         137.5991  144.3002  162.5480 N.pl3   1  UNL1       -0.3274
     10 N         138.3482  142.3993  160.9431 N.ar    1  UNL1       -0.1813
     11 N         138.4017  143.1090  159.6227 N.ar    1  UNL1       -0.1451
     12 C         138.8280  142.1178  158.5807 C.ar    1  UNL1        0.1769
     13 N         139.0379  140.7955  159.2571 N.ar    1  UNL1       -0.2086
     14 C         138.7413  140.9696  160.7171 C.ar    1  UNL1        0.1695
     15 H         137.3654  144.6094  163.4530 H       1  UNL1        0.1452
     16 H         137.5747  144.9295  161.7912 H       1  UNL1        0.1452
     17 C         138.7299  139.3455  166.9799 C.3     1  UNL1        0.2525
     18 O         138.1038  139.9940  165.7809 O.3     1  UNL1       -0.4699
     19 C         139.0120  142.3994  157.1188 C.3     1  UNL1        0.1408
     20 N         139.0672  143.8161  156.6291 N.3     1  UNL1       -0.2644
     21 C         140.1568  144.7316  157.1030 C.3     1  UNL1        0.0941
     22 C         140.2120  146.1484  156.6133 C.3     1  UNL1        0.1081
     23 N         139.1774  146.6496  155.6497 N.pl3   1  UNL1       -0.3046
     24 C         138.0878  145.7341  155.1758 C.3     1  UNL1        0.1067
     25 C         138.0327  144.3174  155.6655 C.3     1  UNL1        0.0777
     26 C         136.9431  143.4019  155.1916 C.3     1  UNL1        0.0192
     27 C         139.2326  148.0663  155.1599 C.ar    1  UNL1        0.0510
     28 C         139.9347  148.3886  153.8741 C.ar    1  UNL1        0.0352
     29 C         139.9899  149.8054  153.3844 C.ar    1  UNL1        0.1002
     30 N         139.3428  150.8998  154.1805 N.ar    1  UNL1       -0.2422
     31 C         138.6407  150.5775  155.4662 C.ar    1  UNL1        0.1002
     32 C         138.5856  149.1607  155.9559 C.ar    1  UNL1        0.0352
@<TRIPOS>BOND
     1    17    18    1
     2    18     1    1
     3     1     2   ar
     4     2     3   ar
     5     3     4   ar
     6     4     5   ar
     7     5     6   ar
     8     6     7   ar
     9     7     8   ar
    10     8     9    1
    11     8    10   ar
    12    10    11   ar
    13    11    12   ar
    14    12    19    1
    15    19    20    1
    16    20    21    1
    17    21    22    1
    18    22    23    1
    19    23    27    1
    20    27    28   ar
    21    28    29   ar
    22    29    30   ar
    23    30    31   ar
    24    31    32   ar
    25    23    24    1
    26    24    25    1
    27    25    26    1
    28    12    13   ar
    29    13    14   ar
    30     6     1   ar
    31    14    10   ar
    32    14     5   ar
    33    25    20    1
    34    32    27   ar
    35     9    15    1
    36     9    16    1
@<TRIPOS>MOLECULE
*****
 32 36 0 0 0
SMALL
GASTEIGER

@<TRIPOS>ATOM
      1 C         142.4915  137.9289  156.5053 C.ar    1  UNL1        0.1564
      2 C         141.4947  138.2809  155.4412 C.ar    1  UNL1        0.0385
      3 C         140.1300  138.7713  155.8245 C.ar    1  UNL1        0.0033
      4 C         139.7620  138.9098  157.2720 C.ar    1  UNL1        0.0048
      5 C         140.7587  138.5578  158.3362 C.ar    1  UNL1        0.0567
      6 C         142.1235  138.0674  157.9529 C.ar    1  UNL1        0.1209
      7 N         143.1203  137.7154  159.0171 N.ar    1  UNL1       -0.2108
      8 C         142.7523  137.8538  160.4647 C.ar    1  UNL1        0.2163
      9 N         143.7491  137.5018  161.5289 N.pl3   1  UNL1       -0.3274
     10 N         141.3875  138.3443  160.8480 N.ar    1  UNL1       -0.1813
     11 N         140.7441  138.5808  162.1822 N.ar    1  UNL1       -0.1451
     12 C         139.3497  139.0790  161.9425 C.ar    1  UNL1        0.1769
     13 N         139.1313  139.1503  160.4602 N.ar    1  UNL1       -0.2086
     14 C         140.3908  138.6962  159.7838 C.ar    1  UNL1        0.1695
     15 H         144.6448  137.1800  161.2774 H       1  UNL1        0.1452
     16 H         143.5075  137.5927  162.4790 H       1  UNL1        0.1452
     17 C         144.0442  136.0204  155.6708 C.3     1  UNL1        0.2525
     18 O         143.8562  137.4385  156.1220 O.3     1  UNL1       -0.4699
     19 C         138.3493  139.4421  162.9996 C.3     1  UNL1        0.1408
     20 N         138.8163  139.9529  164.3304 N.3     1  UNL1       -0.2644
     21 C         139.0978  141.4145  164.5160 C.3     1  UNL1        0.0941
     22 C         139.5648  141.9253  165.8468 C.3     1  UNL1        0.1081
     23 N         139.7503  140.9744  166.9920 N.pl3   1  UNL1       -0.3046
     24 C         139.4688  139.5128  166.8064 C.3     1  UNL1        0.1067
     25 C         139.0018  139.0021  165.4756 C.3     1  UNL1        0.0777
     26 C         138.7203  137.5405  165.2900 C.3     1  UNL1        0.0192
     27 C         140.2173  141.4852  168.3228 C.ar    1  UNL1        0.0510
     28 C         140.4505  140.5278  169.4538 C.ar    1  UNL1        0.0352
     29 C         140.9175  141.0386  170.7846 C.ar    1  UNL1        0.1002
     30 N         141.1514  142.5068  170.9844 N.ar    1  UNL1       -0.2422
     31 C         140.9182  143.4641  169.8534 C.ar    1  UNL1        0.1002
     32 C         140.4512  142.9533  168.5226 C.ar    1  UNL1        0.0352
@<TRIPOS>BOND
     1    17    18    1
     2    18     1    1
     3     1     2   ar
     4     2     3   ar
     5     3     4   ar
     6     4     5   ar
     7     5     6   ar
     8     6     7   ar
     9     7     8   ar
    10     8     9    1
    11     8    10   ar
    12    10    11   ar
    13    11    12   ar
    14    12    19    1
    15    19    20    1
    16    20    21    1
    17    21    22    1
    18    22    23    1
    19    23    27    1
    20    27    28   ar
    21    28    29   ar
    22    29    30   ar
    23    30    31   ar
    24    31    32   ar
    25    23    24    1
    26    24    25    1
    27    25    26    1
    28    12    13   ar
    29    13    14   ar
    30     6     1   ar
    31    14    10   ar
    32    14     5   ar
    33    25    20    1
    34    32    27   ar
    35     9    15    1
    36     9    16    1
@<TRIPOS>MOLECULE
*****
 32 36 0 0 0
SMALL
GASTEIGER

@<TRIPOS>ATOM
      1 C         140.6024  145.9322  157.1368 C.ar    1  UNL1        0.1564
      2 C         141.4797  145.4631  156.0142 C.ar    1  UNL1        0.0385
      3 C         142.5252  144.4174  156.2660 C.ar    1  UNL1        0.0033
      4 C         142.6934  143.8408  157.6405 C.ar    1  UNL1        0.0048
      5 C         141.8162  144.3098  158.7631 C.ar    1  UNL1        0.0567
      6 C         140.7707  145.3555  158.5113 C.ar    1  UNL1        0.1209
      7 N         139.8933  145.8246  159.6340 N.ar    1  UNL1       -0.2108
      8 C         140.0616  145.2479  161.0084 C.ar    1  UNL1        0.2163
      9 N         139.1843  145.7170  162.1311 N.pl3   1  UNL1       -0.3274
     10 N         141.1071  144.2022  161.2602 N.ar    1  UNL1       -0.1813
     11 N         141.5024  143.4563  162.5001 N.ar    1  UNL1       -0.1451
     12 C         142.6240  142.5263  162.1438 C.ar    1  UNL1        0.1769
     13 N         142.9219  142.6974  160.6836 N.ar    1  UNL1       -0.2086
     14 C         141.9844  143.7332  160.1376 C.ar    1  UNL1        0.1695
     15 H         138.4981  146.4033  161.9659 H       1  UNL1        0.1452
     16 H         139.2947  145.3385  163.0332 H       1  UNL1        0.1452
     17 C         138.8718  147.0478  155.5525 C.3     1  UNL1        0.2525
     18 O         139.5569  146.9779  156.8850 O.3     1  UNL1       -0.4699
     19 C         143.3248  141.5896  163.0827 C.3     1  UNL1        0.1408
     20 N         142.8809  141.4892  164.5120 N.3     1  UNL1       -0.2644
     21 C         141.8282  140.4944  164.9023 C.3     1  UNL1        0.0941
     22 C         141.3842  140.3940  166.3316 C.3     1  UNL1        0.1081
     23 N         141.9931  141.2884  167.3706 N.pl3   1  UNL1       -0.3046
     24 C         143.0457  142.2831  166.9803 C.3     1  UNL1        0.1067
     25 C         143.4897  142.3835  165.5510 C.3     1  UNL1        0.0777
     26 C         144.5423  143.3782  165.1608 C.3     1  UNL1        0.0192
     27 C         141.5491  141.1879  168.7999 C.ar    1  UNL1        0.0510
     28 C         142.0844  142.1479  169.8207 C.ar    1  UNL1        0.0352
     29 C         141.6405  142.0475  171.2500 C.ar    1  UNL1        0.1002
     30 N         140.6613  140.9871  171.6584 N.ar    1  UNL1       -0.2422
     31 C         140.1261  140.0272  170.6377 C.ar    1  UNL1        0.1002
     32 C         140.5700  140.1276  169.2084 C.ar    1  UNL1        0.0352
@<TRIPOS>BOND
     1    17    18    1
     2    18     1    1
     3     1     2   ar
     4     2     3   ar
     5     3     4   ar
     6     4     5   ar
     7     5     6   ar
     8     6     7   ar
     9     7     8   ar
    10     8     9    1
    11     8    10   ar
    12    10    11   ar
    13    11    12   ar
    14    12    19    1
    15    19    20    1
    16    20    21    1
    17    21    22    1
    18    22    23    1
    19    23    27    1
    20    27    28   ar
    21    28    29   ar
    22    29    30   ar
    23    30    31   ar
    24    31    32   ar
    25    23    24    1
    26    24    25    1
    27    25    26    1
    28    12    13   ar
    29    13    14   ar
    30     6     1   ar
    31    14    10   ar
    32    14     5   ar
    33    25    20    1
    34    32    27   ar
    35     9    15    1
    36     9    16    1
@<TRIPOS>MOLECULE
*****
 32 36 0 0 0
SMALL
GASTEIGER

@<TRIPOS>ATOM
      1 C         137.1221  141.0084  156.0888 C.ar    1  UNL1        0.1564
      2 C         137.4529  142.0617  155.0734 C.ar    1  UNL1        0.0385
      3 C         138.1849  143.3025  155.4911 C.ar    1  UNL1        0.0033
      4 C         138.5861  143.4901  156.9242 C.ar    1  UNL1        0.0048
      5 C         138.2554  142.4367  157.9396 C.ar    1  UNL1        0.0567
      6 C         137.5234  141.1959  157.5219 C.ar    1  UNL1        0.1209
      7 N         137.1926  140.1425  158.5374 N.ar    1  UNL1       -0.2108
      8 C         137.5939  140.3300  159.9704 C.ar    1  UNL1        0.2163
      9 N         137.2631  139.2767  160.9859 N.pl3   1  UNL1       -0.3274
     10 N         138.3258  141.5709  160.3882 N.ar    1  UNL1       -0.1813
     11 N         138.8459  142.0297  161.7182 N.ar    1  UNL1       -0.1451
     12 C         139.4980  143.3666  161.5248 C.ar    1  UNL1        0.1769
     13 N         139.3810  143.7340  160.0752 N.ar    1  UNL1       -0.2086
     14 C         138.6566  142.6242  159.3728 C.ar    1  UNL1        0.1695
     15 H         136.7827  138.4623  160.7118 H       1  UNL1        0.1452
     16 H         137.5265  139.3998  161.9265 H       1  UNL1        0.1452
     17 C         135.1572  139.8735  154.8234 C.3     1  UNL1        0.2525
     18 O         136.3902  139.7675  155.6711 O.3     1  UNL1       -0.4699
     19 C         140.1523  144.1913  162.5934 C.3     1  UNL1        0.1408
     20 N         140.6559  143.5348  163.8445 N.3     1  UNL1       -0.2644
     21 C         141.9091  142.7112  163.8071 C.3     1  UNL1        0.0941
     22 C         142.4127  142.0546  165.0582 C.3     1  UNL1        0.1081
     23 N         141.6632  142.2217  166.3468 N.pl3   1  UNL1       -0.3046
     24 C         140.4101  143.0453  166.3842 C.3     1  UNL1        0.1067
     25 C         139.9065  143.7018  165.1331 C.3     1  UNL1        0.0777
     26 C         138.6534  144.5254  165.1705 C.3     1  UNL1        0.0192
     27 C         142.1668  141.5651  167.5979 C.ar    1  UNL1        0.0510
     28 C         142.9737  142.3540  168.5862 C.ar    1  UNL1        0.0352
     29 C         143.4773  141.6974  169.8374 C.ar    1  UNL1        0.1002
     30 N         143.1740  140.2521  170.1002 N.ar    1  UNL1       -0.2422
     31 C         142.3672  139.4633  169.1119 C.ar    1  UNL1        0.1002
     32 C         141.8635  140.1199  167.8607 C.ar    1  UNL1        0.0352
@<TRIPOS>BOND
     1    17    18    1
     2    18     1    1
     3     1     2   ar
     4     2     3   ar
     5     3     4   ar
     6     4     5   ar
     7     5     6   ar
     8     6     7   ar
     9     7     8   ar
    10     8     9    1
    11     8    10   ar
    12    10    11   ar
    13    11    12   ar
    14    12    19    1
    15    19    20    1
    16    20    21    1
    17    21    22    1
    18    22    23    1
    19    23    27    1
    20    27    28   ar
    21    28    29   ar
    22    29    30   ar
    23    30    31   ar
    24    31    32   ar
    25    23    24    1
    26    24    25    1
    27    25    26    1
    28    12    13   ar
    29    13    14   ar
    30     6     1   ar
    31    14    10   ar
    32    14     5   ar
    33    25    20    1
    34    32    27   ar
    35     9    15    1
    36     9    16    1
@<TRIPOS>MOLECULE
*****
 32 36 0 0 0
SMALL
GASTEIGER

@<TRIPOS>ATOM
      1 C         142.1093  137.0456  157.0499 C.ar    1  UNL1        0.1564
      2 C         140.9030  136.9942  156.1600 C.ar    1  UNL1        0.0385
      3 C         139.6809  137.7920  156.5064 C.ar    1  UNL1        0.0033
      4 C         139.6651  138.6413  157.7427 C.ar    1  UNL1        0.0048
      5 C         140.8715  138.6927  158.6326 C.ar    1  UNL1        0.0567
      6 C         142.0936  137.8949  158.2862 C.ar    1  UNL1        0.1209
      7 N         143.3000  137.9464  159.1762 N.ar    1  UNL1       -0.2108
      8 C         143.2843  138.7957  160.4125 C.ar    1  UNL1        0.2163
      9 N         144.4907  138.8472  161.3025 N.pl3   1  UNL1       -0.3274
     10 N         142.0622  139.5935  160.7589 N.ar    1  UNL1       -0.1813
     11 N         141.7553  140.5138  161.9029 N.ar    1  UNL1       -0.1451
     12 C         140.3593  141.0311  161.7200 C.ar    1  UNL1        0.1769
     13 N         139.8034  140.4305  160.4630 N.ar    1  UNL1       -0.2086
     14 C         140.8558  139.5420  159.8690 C.ar    1  UNL1        0.1695
     15 H         145.2928  138.3235  161.0751 H       1  UNL1        0.1452
     16 H         144.4804  139.4046  162.1139 H       1  UNL1        0.1452
     17 C         143.3922  134.7865  157.0361 C.3     1  UNL1        0.2525
     18 O         143.3314  136.2478  156.7035 O.3     1  UNL1       -0.4699
     19 C         139.6446  141.9821  162.6338 C.3     1  UNL1        0.1408
     20 N         139.8018  141.8550  164.1201 N.3     1  UNL1       -0.2644
     21 C         139.4772  140.5581  164.8005 C.3     1  UNL1        0.0941
     22 C         139.6344  140.4310  166.2868 C.3     1  UNL1        0.1081
     23 N         140.1162  141.6009  167.0928 N.pl3   1  UNL1       -0.3046
     24 C         140.4408  142.8976  166.4124 C.3     1  UNL1        0.1067
     25 C         140.2836  143.0247  164.9261 C.3     1  UNL1        0.0777
     26 C         140.6082  144.3215  164.2457 C.3     1  UNL1        0.0192
     27 C         140.2734  141.4738  168.5791 C.ar    1  UNL1        0.0510
     28 C         140.7498  142.6453  169.3858 C.ar    1  UNL1        0.0352
     29 C         140.9070  142.5182  170.8721 C.ar    1  UNL1        0.1002
     30 N         140.5877  141.2196  171.5517 N.ar    1  UNL1       -0.2422
     31 C         140.1113  140.0482  170.7451 C.ar    1  UNL1        0.1002
     32 C         139.9542  140.1753  169.2588 C.ar    1  UNL1        0.0352
@<TRIPOS>BOND
     1    17    18    1
     2    18     1    1
     3     1     2   ar
     4     2     3   ar
     5     3     4   ar
     6     4     5   ar
     7     5     6   ar
     8     6     7   ar
     9     7     8   ar
    10     8     9    1
    11     8    10   ar
    12    10    11   ar
    13    11    12   ar
    14    12    19    1
    15    19    20    1
    16    20    21    1
    17    21    22    1
    18    22    23    1
    19    23    27    1
    20    27    28   ar
    21    28    29   ar
    22    29    30   ar
    23    30    31   ar
    24    31    32   ar
    25    23    24    1
    26    24    25    1
    27    25    26    1
    28    12    13   ar
    29    13    14   ar
    30     6     1   ar
    31    14    10   ar
    32    14     5   ar
    33    25    20    1
    34    32    27   ar
    35     9    15    1
    36     9    16    1
@<TRIPOS>MOLECULE
*****
 32 36 0 0 0
SMALL
GASTEIGER

@<TRIPOS>ATOM
      1 C         137.8187  139.3036  169.6179 C.ar    1  UNL1        0.1564
      2 C         137.1682  138.5632  168.4872 C.ar    1  UNL1        0.0385
      3 C         137.7449  138.6478  167.1051 C.ar    1  UNL1        0.0033
      4 C         138.9721  139.4729  166.8537 C.ar    1  UNL1        0.0048
      5 C         139.6226  140.2133  167.9844 C.ar    1  UNL1        0.0567
      6 C         139.0459  140.1287  169.3665 C.ar    1  UNL1        0.1209
      7 N         139.6965  140.8691  170.4973 N.ar    1  UNL1       -0.2108
      8 C         140.9237  141.6942  170.2459 C.ar    1  UNL1        0.2163
      9 N         141.5742  142.4347  171.3767 N.pl3   1  UNL1       -0.3274
     10 N         141.5004  141.7788  168.8638 N.ar    1  UNL1       -0.1813
     11 N         142.6919  142.5071  168.3162 N.ar    1  UNL1       -0.1451
     12 C         142.7778  142.2168  166.8471 C.ar    1  UNL1        0.1769
     13 N         141.6393  141.3090  166.4867 N.ar    1  UNL1       -0.2086
     14 C         140.8499  141.0384  167.7331 C.ar    1  UNL1        0.1695
     15 H         141.1957  142.3791  172.2838 H       1  UNL1        0.1452
     16 H         142.3797  142.9762  171.2116 H       1  UNL1        0.1452
     17 C         135.9729  138.4556  171.2377 C.3     1  UNL1        0.2525
     18 O         137.2420  139.2190  171.0000 O.3     1  UNL1       -0.4699
     19 C         143.8193  142.7420  165.9040 C.3     1  UNL1        0.1408
     20 N         143.4560  143.0503  164.4817 N.3     1  UNL1       -0.2644
     21 C         142.2153  143.8368  164.1781 C.3     1  UNL1        0.0941
     22 C         141.8519  144.1451  162.7558 C.3     1  UNL1        0.1081
     23 N         142.7294  143.6669  161.6371 N.pl3   1  UNL1       -0.3046
     24 C         143.9701  142.8805  161.9406 C.3     1  UNL1        0.1067
     25 C         144.3334  142.5722  163.3629 C.3     1  UNL1        0.0777
     26 C         145.5740  141.7858  163.6665 C.3     1  UNL1        0.0192
     27 C         142.3661  143.9752  160.2148 C.ar    1  UNL1        0.0510
     28 C         143.1543  143.3699  159.0912 C.ar    1  UNL1        0.0352
     29 C         142.7910  143.6782  157.6689 C.ar    1  UNL1        0.1002
     30 N         141.6395  144.5919  157.3701 N.ar    1  UNL1       -0.2422
     31 C         140.8513  145.1972  158.4937 C.ar    1  UNL1        0.1002
     32 C         141.2146  144.8889  159.9160 C.ar    1  UNL1        0.0352
@<TRIPOS>BOND
     1    17    18    1
     2    18     1    1
     3     1     2   ar
     4     2     3   ar
     5     3     4   ar
     6     4     5   ar
     7     5     6   ar
     8     6     7   ar
     9     7     8   ar
    10     8     9    1
    11     8    10   ar
    12    10    11   ar
    13    11    12   ar
    14    12    19    1
    15    19    20    1
    16    20    21    1
    17    21    22    1
    18    22    23    1
    19    23    27    1
    20    27    28   ar
    21    28    29   ar
    22    29    30   ar
    23    30    31   ar
    24    31    32   ar
    25    23    24    1
    26    24    25    1
    27    25    26    1
    28    12    13   ar
    29    13    14   ar
    30     6     1   ar
    31    14    10   ar
    32    14     5   ar
    33    25    20    1
    34    32    27   ar
    35     9    15    1
    36     9    16    1
@<TRIPOS>MOLECULE
*****
 32 36 0 0 0
SMALL
GASTEIGER

@<TRIPOS>ATOM
      1 C         143.9153  131.4946  155.4486 C.ar    1  UNL1        0.1564
      2 C         144.8367  130.9984  156.5231 C.ar    1  UNL1        0.0385
      3 C         145.1403  131.8643  157.7097 C.ar    1  UNL1        0.0033
      4 C         144.5225  133.2265  157.8217 C.ar    1  UNL1        0.0048
      5 C         143.6010  133.7228  156.7471 C.ar    1  UNL1        0.0567
      6 C         143.2974  132.8568  155.5606 C.ar    1  UNL1        0.1209
      7 N         142.3760  133.3531  154.4860 N.ar    1  UNL1       -0.2108
      8 C         141.7581  134.7153  154.5980 C.ar    1  UNL1        0.2163
      9 N         140.8366  135.2116  153.5235 N.pl3   1  UNL1       -0.3274
     10 N         142.0617  135.5813  155.7846 N.ar    1  UNL1       -0.1813
     11 N         141.6044  136.9581  156.1656 N.ar    1  UNL1       -0.1451
     12 C         142.2432  137.3128  157.4756 C.ar    1  UNL1        0.1769
     13 N         143.0953  136.1551  157.9042 N.ar    1  UNL1       -0.2086
     14 C         142.9831  135.0850  156.8591 C.ar    1  UNL1        0.1695
     15 H         140.6374  134.6432  152.7447 H       1  UNL1        0.1452
     16 H         140.4311  136.1057  153.5970 H       1  UNL1        0.1452
     17 C         144.5576  129.5316  153.8725 C.3     1  UNL1        0.2525
     18 O         143.6117  130.6286  154.2620 O.3     1  UNL1       -0.4699
     19 C         142.0617  138.5993  158.2254 C.3     1  UNL1        0.1408
     20 N         141.3763  138.5995  159.5596 N.3     1  UNL1       -0.2644
     21 C         139.8813  138.6969  159.6348 C.3     1  UNL1        0.0941
     22 C         139.1959  138.6971  160.9690 C.3     1  UNL1        0.1081
     23 N         140.0055  138.5999  162.2281 N.pl3   1  UNL1       -0.3046
     24 C         141.5004  138.5025  162.1529 C.3     1  UNL1        0.1067
     25 C         142.1858  138.5023  160.8186 C.3     1  UNL1        0.0777
     26 C         143.6807  138.4049  160.7434 C.3     1  UNL1        0.0192
     27 C         139.3200  138.6000  163.5623 C.ar    1  UNL1        0.0510
     28 C         138.7868  139.8815  164.1314 C.ar    1  UNL1        0.0352
     29 C         138.1014  139.8816  165.4656 C.ar    1  UNL1        0.1002
     30 N         137.9492  138.6004  166.2308 N.ar    1  UNL1       -0.2422
     31 C         138.4824  137.3191  165.6617 C.ar    1  UNL1        0.1002
     32 C         139.1678  137.3189  164.3275 C.ar    1  UNL1        0.0352
@<TRIPOS>BOND
     1    17    18    1
     2    18     1    1
     3     1     2   ar
     4     2     3   ar
     5     3     4   ar
     6     4     5   ar
     7     5     6   ar
     8     6     7   ar
     9     7     8   ar
    10     8     9    1
    11     8    10   ar
    12    10    11   ar
    13    11    12   ar
    14    12    19    1
    15    19    20    1
    16    20    21    1
    17    21    22    1
    18    22    23    1
    19    23    27    1
    20    27    28   ar
    21    28    29   ar
    22    29    30   ar
    23    30    31   ar
    24    31    32   ar
    25    23    24    1
    26    24    25    1
    27    25    26    1
    28    12    13   ar
    29    13    14   ar
    30     6     1   ar
    31    14    10   ar
    32    14     5   ar
    33    25    20    1
    34    32    27   ar
    35     9    15    1
    36     9    16    1
@<TRIPOS>MOLECULE
*****
 32 36 0 0 0
SMALL
GASTEIGER

@<TRIPOS>ATOM
      1 C         140.6969  143.8376  156.3889 C.ar    1  UNL1        0.1564
      2 C         141.3194  145.1930  156.5476 C.ar    1  UNL1        0.0385
      3 C         141.2159  145.9171  157.8572 C.ar    1  UNL1        0.0033
      4 C         140.4899  145.2858  159.0080 C.ar    1  UNL1        0.0048
      5 C         139.8674  143.9304  158.8492 C.ar    1  UNL1        0.0567
      6 C         139.9709  143.2063  157.5397 C.ar    1  UNL1        0.1209
      7 N         139.3483  141.8508  157.3810 N.ar    1  UNL1       -0.2108
      8 C         138.6224  141.2195  158.5318 C.ar    1  UNL1        0.2163
      9 N         137.9998  139.8639  158.3731 N.pl3   1  UNL1       -0.3274
     10 N         138.5189  141.9436  159.8413 N.ar    1  UNL1       -0.1813
     11 N         137.8711  141.5757  161.1432 N.ar    1  UNL1       -0.1451
     12 C         138.0933  142.7038  162.1066 C.ar    1  UNL1        0.1769
     13 N         138.8784  143.7689  161.4000 N.ar    1  UNL1       -0.2086
     14 C         139.1414  143.2990  160.0001 C.ar    1  UNL1        0.1695
     15 H         138.0677  139.3887  157.5136 H       1  UNL1        0.1452
     16 H         137.5234  139.4496  159.1284 H       1  UNL1        0.1452
     17 C         141.9325  142.1598  154.8370 C.3     1  UNL1        0.2525
     18 O         140.8003  143.1134  155.0793 O.3     1  UNL1       -0.4699
     19 C         137.6144  142.7574  163.5271 C.3     1  UNL1        0.1408
     20 N         138.5362  142.3678  164.6445 N.3     1  UNL1       -0.2644
     21 C         138.6646  140.9274  165.0432 C.3     1  UNL1        0.0941
     22 C         139.5864  140.5378  166.1605 C.3     1  UNL1        0.1081
     23 N         140.3797  141.5886  166.8793 N.pl3   1  UNL1       -0.3046
     24 C         140.2512  143.0289  166.4807 C.3     1  UNL1        0.1067
     25 C         139.3295  143.4185  165.3633 C.3     1  UNL1        0.0777
     26 C         139.2010  144.8588  164.9646 C.3     1  UNL1        0.0192
     27 C         141.3015  141.1990  167.9967 C.ar    1  UNL1        0.0510
     28 C         141.1228  139.8817  168.6916 C.ar    1  UNL1        0.0352
     29 C         142.0445  139.4921  169.8090 C.ar    1  UNL1        0.1002
     30 N         143.1450  140.4198  170.2315 N.ar    1  UNL1       -0.2422
     31 C         143.3236  141.7370  169.5366 C.ar    1  UNL1        0.1002
     32 C         142.4019  142.1266  168.4192 C.ar    1  UNL1        0.0352
@<TRIPOS>BOND
     1    17    18    1
     2    18     1    1
     3     1     2   ar
     4     2     3   ar
     5     3     4   ar
     6     4     5   ar
     7     5     6   ar
     8     6     7   ar
     9     7     8   ar
    10     8     9    1
    11     8    10   ar
    12    10    11   ar
    13    11    12   ar
    14    12    19    1
    15    19    20    1
    16    20    21    1
    17    21    22    1
    18    22    23    1
    19    23    27    1
    20    27    28   ar
    21    28    29   ar
    22    29    30   ar
    23    30    31   ar
    24    31    32   ar
    25    23    24    1
    26    24    25    1
    27    25    26    1
    28    12    13   ar
    29    13    14   ar
    30     6     1   ar
    31    14    10   ar
    32    14     5   ar
    33    25    20    1
    34    32    27   ar
    35     9    15    1
    36     9    16    1
@<TRIPOS>MOLECULE
*****
 32 36 0 0 0
SMALL
GASTEIGER

@<TRIPOS>ATOM
      1 C         140.6224  140.7839  169.4241 C.ar    1  UNL1        0.1564
      2 C         141.2983  139.6969  170.2061 C.ar    1  UNL1        0.0385
      3 C         142.3989  138.8943  169.5779 C.ar    1  UNL1        0.0033
      4 C         142.8236  139.1788  168.1677 C.ar    1  UNL1        0.0048
      5 C         142.1477  140.2658  167.3857 C.ar    1  UNL1        0.0567
      6 C         141.0471  141.0684  168.0139 C.ar    1  UNL1        0.1209
      7 N         140.3712  142.1554  167.2319 N.ar    1  UNL1       -0.2108
      8 C         140.7960  142.4399  165.8217 C.ar    1  UNL1        0.2163
      9 N         140.1201  143.5270  165.0397 N.pl3   1  UNL1       -0.3274
     10 N         141.8966  141.6374  165.1935 N.ar    1  UNL1       -0.1813
     11 N         142.5252  141.6888  163.8326 N.ar    1  UNL1       -0.1451
     12 C         143.5896  140.6336  163.7735 C.ar    1  UNL1        0.1769
     13 N         143.6188  139.9300  165.0979 N.ar    1  UNL1       -0.2086
     14 C         142.5724  140.5504  165.9755 C.ar    1  UNL1        0.1695
     15 H         139.3977  144.0537  165.4519 H       1  UNL1        0.1452
     16 H         140.3989  143.7137  164.1141 H       1  UNL1        0.1452
     17 C         139.8196  142.9305  170.6478 C.3     1  UNL1        0.2525
     18 O         139.5218  141.5864  170.0523 O.3     1  UNL1       -0.4699
     19 C         144.4703  140.3345  162.5966 C.3     1  UNL1        0.1408
     20 N         143.9114  139.6140  161.4056 N.3     1  UNL1       -0.2644
     21 C         143.6168  138.1455  161.4876 C.3     1  UNL1        0.0941
     22 C         143.0579  137.4250  160.2966 C.3     1  UNL1        0.1081
     23 N         142.7936  138.1731  159.0235 N.pl3   1  UNL1       -0.3046
     24 C         143.0882  139.6416  158.9415 C.3     1  UNL1        0.1067
     25 C         143.6472  140.3620  160.1326 C.3     1  UNL1        0.0777
     26 C         143.9418  141.8305  160.0506 C.3     1  UNL1        0.0192
     27 C         142.2347  137.4526  157.8325 C.ar    1  UNL1        0.0510
     28 C         143.0099  136.3347  157.2004 C.ar    1  UNL1        0.0352
     29 C         142.4510  135.6143  156.0094 C.ar    1  UNL1        0.1002
     30 N         141.1169  136.0117  155.4505 N.ar    1  UNL1       -0.2422
     31 C         140.3418  137.1295  156.0826 C.ar    1  UNL1        0.1002
     32 C         140.9007  137.8500  157.2736 C.ar    1  UNL1        0.0352
@<TRIPOS>BOND
     1    17    18    1
     2    18     1    1
     3     1     2   ar
     4     2     3   ar
     5     3     4   ar
     6     4     5   ar
     7     5     6   ar
     8     6     7   ar
     9     7     8   ar
    10     8     9    1
    11     8    10   ar
    12    10    11   ar
    13    11    12   ar
    14    12    19    1
    15    19    20    1
    16    20    21    1
    17    21    22    1
    18    22    23    1
    19    23    27    1
    20    27    28   ar
    21    28    29   ar
    22    29    30   ar
    23    30    31   ar
    24    31    32   ar
    25    23    24    1
    26    24    25    1
    27    25    26    1
    28    12    13   ar
    29    13    14   ar
    30     6     1   ar
    31    14    10   ar
    32    14     5   ar
    33    25    20    1
    34    32    27   ar
    35     9    15    1
    36     9    16    1
