@<TRIPOS>MOLECULE
*****
 32 35 0 0 0
SMALL
GASTEIGER

@<TRIPOS>ATOM
      1 C         140.5481  142.6329  161.8069 C.ar    1  UNL1        0.0537
      2 C         141.2737  141.9028  160.7159 C.ar    1  UNL1        0.0060
      3 C         142.1662  140.7453  161.0529 C.ar    1  UNL1        0.0173
      4 C         142.3331  140.3179  162.4810 C.ar    1  UNL1        0.0594
      5 C         141.6075  141.0480  163.5720 C.ar    1  UNL1        0.0130
      6 C         140.7150  142.2055  163.2350 C.ar    1  UNL1        0.0057
      7 C         141.9649  140.4033  164.8785 C.ar    1  UNL1       -0.0091
      8 C         142.9114  139.2748  164.5948 C.ar    1  UNL1        0.0331
      9 N         143.1390  139.2220  163.1131 N.ar    1  UNL1       -0.3289
     10 C         144.0181  138.2449  162.3903 C.3     1  UNL1        0.1301
     11 C         143.4439  138.4411  165.7223 C.3     1  UNL1        0.0435
     12 C         143.0297  138.7359  167.1335 C.3     1  UNL1        0.0066
     13 C         142.0832  139.8644  167.4172 C.3     1  UNL1        0.0049
     14 C         141.5508  140.6981  166.2896 C.3     1  UNL1        0.0275
     15 C         141.6691  140.1592  168.8285 C.3     1  UNL1        0.0053
     16 C         142.6873  140.6229  169.8276 C.3     1  UNL1        0.0322
     17 C         142.2732  140.9177  171.2388 C.3     1  UNL1        0.1422
     18 O         140.8407  140.7488  171.6509 O.3     1  UNL1       -0.3538
     19 C         139.8225  140.2851  170.6519 C.3     1  UNL1        0.1422
     20 C         140.2367  139.9903  169.2406 C.3     1  UNL1        0.0322
     21 N         140.1676  145.1944  161.5982 N.am    1  UNL1       -0.2743
     22 C         139.2751  146.3520  161.2611 C.3     1  UNL1        0.1152
     23 C         139.6556  143.7904  161.4699 C.2     1  UNL1        0.2491
     24 O         138.2511  143.5439  161.0045 O.2     1  UNL1       -0.2699
     25 C         141.5721  145.4410  162.0635 C.3     1  UNL1        0.0943
     26 C         141.9222  145.2750  163.5126 C.3     1  UNL1        0.0311
     27 C         143.3571  145.1329  163.9261 C.3     1  UNL1        0.0868
     28 C         145.5007  141.7934  163.8769 C.3     1  UNL1        0.1107
     29 N         144.6855  142.9471  164.3814 N.am    1  UNL1       -0.3027
     30 C         144.1723  143.9793  163.4216 C.2     1  UNL1        0.2226
     31 O         144.4743  143.8578  161.9573 O.2     1  UNL1       -0.2751
     32 H         144.4872  143.0268  165.3424 H       1  UNL1        0.1495
@<TRIPOS>BOND
     1    28    29    1
     2    29    30   am
     3    30    31    2
     4    30    27    1
     5    27    26    1
     6    26    25    1
     7    25    21    1
     8    21    22    1
     9    21    23   am
    10    23    24    2
    11    23     1    1
    12     1     2   ar
    13     2     3   ar
    14     3     4   ar
    15     4     5   ar
    16     5     6   ar
    17     5     7   ar
    18     7     8   ar
    19     8     9   ar
    20     9    10    1
    21     8    11    1
    22    11    12    1
    23    12    13    1
    24    13    15    1
    25    15    16    1
    26    16    17    1
    27    17    18    1
    28    18    19    1
    29    19    20    1
    30    13    14    1
    31     6     1   ar
    32    14     7    1
    33     9     4   ar
    34    20    15    1
    35    29    32    1
@<TRIPOS>MOLECULE
*****
 32 35 0 0 0
SMALL
GASTEIGER

@<TRIPOS>ATOM
      1 C         141.4580  143.2218  161.6065 C.ar    1  UNL1        0.0537
      2 C         141.7691  142.1843  160.5689 C.ar    1  UNL1        0.0060
      3 C         142.2115  140.8136  160.9879 C.ar    1  UNL1        0.0173
      4 C         142.3429  140.4805  162.4445 C.ar    1  UNL1        0.0594
      5 C         142.0318  141.5180  163.4821 C.ar    1  UNL1        0.0130
      6 C         141.5893  142.8887  163.0631 C.ar    1  UNL1        0.0057
      7 C         142.2507  140.9032  164.8328 C.ar    1  UNL1       -0.0091
      8 C         142.6971  139.4856  164.6298 C.ar    1  UNL1        0.0331
      9 N         142.7540  139.2244  163.1538 N.ar    1  UNL1       -0.3289
     10 C         143.1523  137.9337  162.5016 C.3     1  UNL1        0.1301
     11 C         142.9940  138.6158  165.8151 C.3     1  UNL1        0.0435
     12 C         142.8446  139.1635  167.2035 C.3     1  UNL1        0.0066
     13 C         142.3982  140.5811  167.4065 C.3     1  UNL1        0.0049
     14 C         142.1012  141.4509  166.2211 C.3     1  UNL1        0.0275
     15 C         142.2487  141.1289  168.7949 C.3     1  UNL1        0.0053
     16 C         141.4341  140.3847  169.8111 C.3     1  UNL1        0.0322
     17 C         141.2847  140.9325  171.1995 C.3     1  UNL1        0.1422
     18 O         141.9498  142.2245  171.5717 O.3     1  UNL1       -0.3538
     19 C         142.7644  142.9686  170.5555 C.3     1  UNL1        0.1422
     20 C         142.9139  142.4209  169.1671 C.3     1  UNL1        0.0322
     21 N         139.9030  145.2790  161.9230 N.am    1  UNL1       -0.2743
     22 C         139.4606  146.6496  161.5040 C.3     1  UNL1        0.1152
     23 C         141.0155  144.5925  161.1875 C.2     1  UNL1        0.2491
     24 O         141.6856  145.2766  160.0331 O.2     1  UNL1       -0.2699
     25 C         139.2329  144.5948  163.0776 C.3     1  UNL1        0.0943
     26 C         137.8946  143.9439  162.8896 C.3     1  UNL1        0.0311
     27 C         137.8018  142.5922  162.2459 C.3     1  UNL1        0.0868
     28 C         138.2457  140.0384  165.2510 C.3     1  UNL1        0.1107
     29 N         137.8600  141.2650  164.4785 N.am    1  UNL1       -0.3027
     30 C         138.1876  141.3656  163.0183 C.2     1  UNL1        0.2226
     31 O         138.9009  140.2396  162.3303 O.2     1  UNL1       -0.2751
     32 H         137.3918  142.0041  164.9300 H       1  UNL1        0.1495
@<TRIPOS>BOND
     1    28    29    1
     2    29    30   am
     3    30    31    2
     4    30    27    1
     5    27    26    1
     6    26    25    1
     7    25    21    1
     8    21    22    1
     9    21    23   am
    10    23    24    2
    11    23     1    1
    12     1     2   ar
    13     2     3   ar
    14     3     4   ar
    15     4     5   ar
    16     5     6   ar
    17     5     7   ar
    18     7     8   ar
    19     8     9   ar
    20     9    10    1
    21     8    11    1
    22    11    12    1
    23    12    13    1
    24    13    15    1
    25    15    16    1
    26    16    17    1
    27    17    18    1
    28    18    19    1
    29    19    20    1
    30    13    14    1
    31     6     1   ar
    32    14     7    1
    33     9     4   ar
    34    20    15    1
    35    29    32    1
@<TRIPOS>MOLECULE
*****
 32 35 0 0 0
SMALL
GASTEIGER

@<TRIPOS>ATOM
      1 C         141.6612  141.5873  160.6682 C.ar    1  UNL1        0.0537
      2 C         140.9379  140.4444  160.0198 C.ar    1  UNL1        0.0060
      3 C         140.1643  139.4726  160.8607 C.ar    1  UNL1        0.0173
      4 C         140.1141  139.6436  162.3500 C.ar    1  UNL1        0.0594
      5 C         140.8375  140.7865  162.9985 C.ar    1  UNL1        0.0130
      6 C         141.6110  141.7584  162.1575 C.ar    1  UNL1        0.0057
      7 C         140.6087  140.7000  164.4784 C.ar    1  UNL1       -0.0091
      8 C         139.7440  139.5037  164.7446 C.ar    1  UNL1        0.0331
      9 N         139.4383  138.8508  163.4292 N.ar    1  UNL1       -0.3289
     10 C         138.6034  137.6209  163.2282 C.3     1  UNL1        0.1301
     11 C         139.3466  139.1633  166.1503 C.3     1  UNL1        0.0435
     12 C         139.8140  140.0194  167.2900 C.3     1  UNL1        0.0066
     13 C         140.6787  141.2157  167.0238 C.3     1  UNL1        0.0049
     14 C         141.0761  141.5560  165.6180 C.3     1  UNL1        0.0275
     15 C         141.1461  142.0718  168.1634 C.3     1  UNL1        0.0053
     16 C         140.2250  143.0941  168.7605 C.3     1  UNL1        0.0322
     17 C         140.6924  143.9501  169.9001 C.3     1  UNL1        0.1422
     18 O         142.0810  143.7839  170.4427 O.3     1  UNL1       -0.3538
     19 C         143.0021  142.7616  169.8456 C.3     1  UNL1        0.1422
     20 C         142.5347  141.9056  168.7060 C.3     1  UNL1        0.0322
     21 N         141.7653  143.7936  159.3003 N.am    1  UNL1       -0.2743
     22 C         142.5389  144.7655  158.4594 C.3     1  UNL1        0.1152
     23 C         142.4348  142.5592  159.8273 C.2     1  UNL1        0.2491
     24 O         143.8779  142.2965  159.5134 O.2     1  UNL1       -0.2699
     25 C         140.3222  144.0563  159.6141 C.3     1  UNL1        0.0943
     26 C         139.9345  145.2777  160.3937 C.3     1  UNL1        0.0311
     27 C         140.2980  145.3880  161.8449 C.3     1  UNL1        0.0868
     28 C         138.6323  144.8381  165.4048 C.3     1  UNL1        0.1107
     29 N         139.6414  145.1844  164.3503 N.am    1  UNL1       -0.3027
     30 C         139.2890  145.0417  162.8993 C.2     1  UNL1        0.2226
     31 O         137.9275  144.5526  162.5027 O.2     1  UNL1       -0.2751
     32 H         140.5350  145.5054  164.6105 H       1  UNL1        0.1495
@<TRIPOS>BOND
     1    28    29    1
     2    29    30   am
     3    30    31    2
     4    30    27    1
     5    27    26    1
     6    26    25    1
     7    25    21    1
     8    21    22    1
     9    21    23   am
    10    23    24    2
    11    23     1    1
    12     1     2   ar
    13     2     3   ar
    14     3     4   ar
    15     4     5   ar
    16     5     6   ar
    17     5     7   ar
    18     7     8   ar
    19     8     9   ar
    20     9    10    1
    21     8    11    1
    22    11    12    1
    23    12    13    1
    24    13    15    1
    25    15    16    1
    26    16    17    1
    27    17    18    1
    28    18    19    1
    29    19    20    1
    30    13    14    1
    31     6     1   ar
    32    14     7    1
    33     9     4   ar
    34    20    15    1
    35    29    32    1
@<TRIPOS>MOLECULE
*****
 32 35 0 0 0
SMALL
GASTEIGER

@<TRIPOS>ATOM
      1 C         140.0044  143.2687  160.6955 C.ar    1  UNL1        0.0537
      2 C         139.4061  142.1226  159.9349 C.ar    1  UNL1        0.0060
      3 C         139.0650  140.8469  160.6463 C.ar    1  UNL1        0.0173
      4 C         139.3220  140.7173  162.1184 C.ar    1  UNL1        0.0594
      5 C         139.9202  141.8634  162.8790 C.ar    1  UNL1        0.0130
      6 C         140.2614  143.1391  162.1675 C.ar    1  UNL1        0.0057
      7 C         140.0589  141.4459  164.3132 C.ar    1  UNL1       -0.0091
      8 C         139.5464  140.0418  164.4388 C.ar    1  UNL1        0.0331
      9 N         139.0910  139.5915  163.0824 N.ar    1  UNL1       -0.3289
     10 C         138.5071  138.2508  162.7486 C.3     1  UNL1        0.1301
     11 C         139.5607  139.3547  165.7720 C.3     1  UNL1        0.0435
     12 C         140.0874  140.0718  166.9797 C.3     1  UNL1        0.0066
     13 C         140.5999  141.4759  166.8540 C.3     1  UNL1        0.0049
     14 C         140.5857  142.1629  165.5207 C.3     1  UNL1        0.0275
     15 C         141.1267  142.1929  168.0617 C.3     1  UNL1        0.0053
     16 C         140.2653  143.1919  168.7758 C.3     1  UNL1        0.0322
     17 C         140.7921  143.9090  169.9835 C.3     1  UNL1        0.1422
     18 O         142.1803  143.6269  170.4770 O.3     1  UNL1       -0.3538
     19 C         143.0416  142.6279  169.7629 C.3     1  UNL1        0.1422
     20 C         142.5149  141.9109  168.5552 C.3     1  UNL1        0.0322
     21 N         141.3738  144.5422  158.8920 N.am    1  UNL1       -0.2743
     22 C         141.7150  145.8179  158.1805 C.3     1  UNL1        0.1152
     23 C         140.3455  144.5444  159.9840 C.2     1  UNL1        0.2491
     24 O         139.6584  145.8222  160.3645 O.2     1  UNL1       -0.2699
     25 C         142.0610  143.2643  158.5114 C.3     1  UNL1        0.0943
     26 C         143.3780  142.9067  159.1340 C.3     1  UNL1        0.0311
     27 C         143.4206  142.0102  160.3360 C.3     1  UNL1        0.0868
     28 C         145.7823  141.7333  163.5133 C.3     1  UNL1        0.1107
     29 N         144.9643  141.3458  162.3171 N.am    1  UNL1       -0.3027
     30 C         144.2385  142.3978  161.5321 C.2     1  UNL1        0.2226
     31 O         144.3305  143.8374  161.9432 O.2     1  UNL1       -0.2751
     32 H         144.9039  140.4009  162.0473 H       1  UNL1        0.1495
@<TRIPOS>BOND
     1    28    29    1
     2    29    30   am
     3    30    31    2
     4    30    27    1
     5    27    26    1
     6    26    25    1
     7    25    21    1
     8    21    22    1
     9    21    23   am
    10    23    24    2
    11    23     1    1
    12     1     2   ar
    13     2     3   ar
    14     3     4   ar
    15     4     5   ar
    16     5     6   ar
    17     5     7   ar
    18     7     8   ar
    19     8     9   ar
    20     9    10    1
    21     8    11    1
    22    11    12    1
    23    12    13    1
    24    13    15    1
    25    15    16    1
    26    16    17    1
    27    17    18    1
    28    18    19    1
    29    19    20    1
    30    13    14    1
    31     6     1   ar
    32    14     7    1
    33     9     4   ar
    34    20    15    1
    35    29    32    1
@<TRIPOS>MOLECULE
*****
 32 35 0 0 0
SMALL
GASTEIGER

@<TRIPOS>ATOM
      1 C         141.7326  141.3726  160.7620 C.ar    1  UNL1        0.0537
      2 C         141.0085  140.2194  160.1329 C.ar    1  UNL1        0.0060
      3 C         140.2180  139.2739  160.9879 C.ar    1  UNL1        0.0173
      4 C         140.1516  139.4815  162.4719 C.ar    1  UNL1        0.0594
      5 C         140.8758  140.6346  163.1010 C.ar    1  UNL1        0.0130
      6 C         141.6663  141.5802  162.2460 C.ar    1  UNL1        0.0057
      7 C         140.6291  140.5858  164.5798 C.ar    1  UNL1       -0.0091
      8 C         139.7525  139.4025  164.8647 C.ar    1  UNL1        0.0331
      9 N         139.4574  138.7199  163.5619 N.ar    1  UNL1       -0.3289
     10 C         138.6158  137.4915  163.3809 C.3     1  UNL1        0.1301
     11 C         139.3362  139.0993  166.2734 C.3     1  UNL1        0.0435
     12 C         139.7965  139.9795  167.3974 C.3     1  UNL1        0.0066
     13 C         140.6731  141.1628  167.1126 C.3     1  UNL1        0.0049
     14 C         141.0894  141.4660  165.7037 C.3     1  UNL1        0.0275
     15 C         141.1335  142.0430  168.2366 C.3     1  UNL1        0.0053
     16 C         140.2183  143.0959  168.7878 C.3     1  UNL1        0.0322
     17 C         140.6786  143.9761  169.9118 C.3     1  UNL1        0.1422
     18 O         142.0543  143.8034  170.4845 O.3     1  UNL1       -0.3538
     19 C         142.9695  142.7506  169.9333 C.3     1  UNL1        0.1422
     20 C         142.5091  141.8704  168.8093 C.3     1  UNL1        0.0322
     21 N         141.8343  143.4545  159.2110 N.am    1  UNL1       -0.2743
     22 C         142.6248  144.4000  158.3560 C.3     1  UNL1        0.1152
     23 C         142.5231  142.3182  159.9070 C.2     1  UNL1        0.2491
     24 O         144.0024  142.1275  159.7479 O.2     1  UNL1       -0.2699
     25 C         140.3550  143.6452  159.3700 C.3     1  UNL1        0.0943
     26 C         139.7956  144.1123  160.6810 C.3     1  UNL1        0.0311
     27 C         140.3800  145.3157  161.3597 C.3     1  UNL1        0.0868
     28 C         143.8255  144.9054  163.2858 C.3     1  UNL1        0.1107
     29 N         142.8366  145.0792  162.1714 N.am    1  UNL1       -0.3027
     30 C         141.3688  145.1419  162.4741 C.2     1  UNL1        0.2226
     31 O         140.8899  145.0308  163.8913 O.2     1  UNL1       -0.2751
     32 H         143.1509  145.1521  161.2412 H       1  UNL1        0.1495
@<TRIPOS>BOND
     1    28    29    1
     2    29    30   am
     3    30    31    2
     4    30    27    1
     5    27    26    1
     6    26    25    1
     7    25    21    1
     8    21    22    1
     9    21    23   am
    10    23    24    2
    11    23     1    1
    12     1     2   ar
    13     2     3   ar
    14     3     4   ar
    15     4     5   ar
    16     5     6   ar
    17     5     7   ar
    18     7     8   ar
    19     8     9   ar
    20     9    10    1
    21     8    11    1
    22    11    12    1
    23    12    13    1
    24    13    15    1
    25    15    16    1
    26    16    17    1
    27    17    18    1
    28    18    19    1
    29    19    20    1
    30    13    14    1
    31     6     1   ar
    32    14     7    1
    33     9     4   ar
    34    20    15    1
    35    29    32    1
@<TRIPOS>MOLECULE
*****
 32 35 0 0 0
SMALL
GASTEIGER

@<TRIPOS>ATOM
      1 C         140.2244  140.5904  167.0824 C.ar    1  UNL1        0.0537
      2 C         141.3989  140.9409  167.9471 C.ar    1  UNL1        0.0060
      3 C         142.5100  141.7851  167.3968 C.ar    1  UNL1        0.0173
      4 C         142.4466  142.2787  165.9817 C.ar    1  UNL1        0.0594
      5 C         141.2722  141.9281  165.1171 C.ar    1  UNL1        0.0130
      6 C         140.1611  141.0840  165.6674 C.ar    1  UNL1        0.0057
      7 C         141.4845  142.5543  163.7706 C.ar    1  UNL1       -0.0091
      8 C         142.7902  143.2919  163.8032 C.ar    1  UNL1        0.0331
      9 N         143.3848  143.1216  165.1698 N.ar    1  UNL1       -0.3289
     10 C         144.6887  143.6936  165.6415 C.3     1  UNL1        0.1301
     11 C         143.2691  144.0234  162.5844 C.3     1  UNL1        0.0435
     12 C         142.4422  144.0173  161.3329 C.3     1  UNL1        0.0066
     13 C         141.1365  143.2797  161.3003 C.3     1  UNL1        0.0049
     14 C         140.6577  142.5482  162.5192 C.3     1  UNL1        0.0275
     15 C         140.3096  143.2736  160.0488 C.3     1  UNL1        0.0053
     16 C         139.1518  142.3287  159.9195 C.3     1  UNL1        0.0322
     17 C         138.3249  142.3226  158.6680 C.3     1  UNL1        0.1422
     18 O         138.6558  143.2614  157.5458 O.3     1  UNL1       -0.3538
     19 C         139.8136  144.2063  157.6751 C.3     1  UNL1        0.1422
     20 C         140.6405  144.2124  158.9266 C.3     1  UNL1        0.0322
     21 N         138.3686  138.8064  166.7316 N.am    1  UNL1       -0.2743
     22 C         137.2575  137.9622  167.2820 C.3     1  UNL1        0.1152
     23 C         139.1133  139.7462  167.6327 C.2     1  UNL1        0.2491
     24 O         138.7470  139.8419  169.0841 O.2     1  UNL1       -0.2699
     25 C         138.7349  138.7107  165.2801 C.3     1  UNL1        0.0943
     26 C         139.4160  137.4805  164.7581 C.3     1  UNL1        0.0311
     27 C         140.8268  137.5607  164.2548 C.3     1  UNL1        0.0868
     28 C         142.7775  137.6715  160.8005 C.3     1  UNL1        0.1107
     29 N         142.5083  137.6351  162.2757 N.am    1  UNL1       -0.3027
     30 C         141.0960  137.5971  162.7796 C.2     1  UNL1        0.2226
     31 O         139.9529  137.5955  161.8084 O.2     1  UNL1       -0.2751
     32 H         143.2585  137.6361  162.9132 H       1  UNL1        0.1495
@<TRIPOS>BOND
     1    28    29    1
     2    29    30   am
     3    30    31    2
     4    30    27    1
     5    27    26    1
     6    26    25    1
     7    25    21    1
     8    21    22    1
     9    21    23   am
    10    23    24    2
    11    23     1    1
    12     1     2   ar
    13     2     3   ar
    14     3     4   ar
    15     4     5   ar
    16     5     6   ar
    17     5     7   ar
    18     7     8   ar
    19     8     9   ar
    20     9    10    1
    21     8    11    1
    22    11    12    1
    23    12    13    1
    24    13    15    1
    25    15    16    1
    26    16    17    1
    27    17    18    1
    28    18    19    1
    29    19    20    1
    30    13    14    1
    31     6     1   ar
    32    14     7    1
    33     9     4   ar
    34    20    15    1
    35    29    32    1
@<TRIPOS>MOLECULE
*****
 32 35 0 0 0
SMALL
GASTEIGER

@<TRIPOS>ATOM
      1 C         142.1187  141.1513  159.9417 C.ar    1  UNL1        0.0537
      2 C         141.8425  142.2971  159.0139 C.ar    1  UNL1        0.0060
      3 C         141.2022  143.5485  159.5374 C.ar    1  UNL1        0.0173
      4 C         140.8381  143.6541  160.9887 C.ar    1  UNL1        0.0594
      5 C         141.1143  142.5083  161.9164 C.ar    1  UNL1        0.0130
      6 C         141.7546  141.2569  161.3930 C.ar    1  UNL1        0.0057
      7 C         140.6481  142.8993  163.2876 C.ar    1  UNL1       -0.0091
      8 C         140.0838  144.2868  163.2071 C.ar    1  UNL1        0.0331
      9 N         140.2013  144.7533  161.7863 N.ar    1  UNL1       -0.3289
     10 C         139.7594  146.0851  161.2562 C.3     1  UNL1        0.1301
     11 C         139.5360  144.9462  164.4379 C.3     1  UNL1        0.0435
     12 C         139.5524  144.2181  165.7492 C.3     1  UNL1        0.0066
     13 C         140.1167  142.8307  165.8297 C.3     1  UNL1        0.0049
     14 C         140.6645  142.1713  164.5988 C.3     1  UNL1        0.0275
     15 C         140.1331  142.1026  167.1411 C.3     1  UNL1        0.0053
     16 C         139.7482  140.6540  167.1995 C.3     1  UNL1        0.0322
     17 C         139.7646  139.9259  168.5109 C.3     1  UNL1        0.1422
     18 O         140.1659  140.6465  169.7638 O.3     1  UNL1       -0.3538
     19 C         140.5508  142.0951  169.7054 C.3     1  UNL1        0.1422
     20 C         140.5344  142.8231  168.3940 C.3     1  UNL1        0.0322
     21 N         141.9131  138.8271  158.7990 N.am    1  UNL1       -0.2743
     22 C         142.5534  137.5757  158.2755 C.3     1  UNL1        0.1152
     23 C         142.7590  139.8999  159.4183 C.2     1  UNL1        0.2491
     24 O         144.2452  139.7212  159.5141 O.2     1  UNL1       -0.2699
     25 C         140.4268  139.0057  158.7032 C.3     1  UNL1        0.0943
     26 C         139.5168  138.2073  159.5888 C.3     1  UNL1        0.0311
     27 C         139.2397  138.6675  160.9893 C.3     1  UNL1        0.0868
     28 C         140.2207  137.5893  164.6805 C.3     1  UNL1        0.1107
     29 N         139.4584  138.1808  163.5319 N.am    1  UNL1       -0.3027
     30 C         140.0019  138.0761  162.1378 C.2     1  UNL1        0.2226
     31 O         141.3077  137.3799  161.8922 O.2     1  UNL1       -0.2751
     32 H         138.6014  138.6377  163.6931 H       1  UNL1        0.1495
@<TRIPOS>BOND
     1    28    29    1
     2    29    30   am
     3    30    31    2
     4    30    27    1
     5    27    26    1
     6    26    25    1
     7    25    21    1
     8    21    22    1
     9    21    23   am
    10    23    24    2
    11    23     1    1
    12     1     2   ar
    13     2     3   ar
    14     3     4   ar
    15     4     5   ar
    16     5     6   ar
    17     5     7   ar
    18     7     8   ar
    19     8     9   ar
    20     9    10    1
    21     8    11    1
    22    11    12    1
    23    12    13    1
    24    13    15    1
    25    15    16    1
    26    16    17    1
    27    17    18    1
    28    18    19    1
    29    19    20    1
    30    13    14    1
    31     6     1   ar
    32    14     7    1
    33     9     4   ar
    34    20    15    1
    35    29    32    1
@<TRIPOS>MOLECULE
*****
 32 35 0 0 0
SMALL
GASTEIGER

@<TRIPOS>ATOM
      1 C         141.8958  142.8267  159.8516 C.ar    1  UNL1        0.0537
      2 C         142.4011  141.6838  159.0220 C.ar    1  UNL1        0.0060
      3 C         142.9065  140.4389  159.6889 C.ar    1  UNL1        0.0173
      4 C         142.9066  140.3368  161.1854 C.ar    1  UNL1        0.0594
      5 C         142.4012  141.4797  162.0150 C.ar    1  UNL1        0.0130
      6 C         141.8959  142.7247  161.3481 C.ar    1  UNL1        0.0057
      7 C         142.5226  141.0933  163.4594 C.ar    1  UNL1       -0.0091
      8 C         143.1029  139.7116  163.5223 C.ar    1  UNL1        0.0331
      9 N         143.3402  139.2441  162.1169 N.ar    1  UNL1       -0.3289
     10 C         143.9110  137.9168  161.7138 C.3     1  UNL1        0.1301
     11 C         143.3403  139.0577  164.8511 C.3     1  UNL1        0.0435
     12 C         142.9974  139.7855  166.1171 C.3     1  UNL1        0.0066
     13 C         142.4170  141.1672  166.0542 C.3     1  UNL1        0.0049
     14 C         142.1797  141.8211  164.7252 C.3     1  UNL1        0.0275
     15 C         142.0741  141.8951  167.3201 C.3     1  UNL1        0.0053
     16 C         143.0965  142.0274  168.4097 C.3     1  UNL1        0.0322
     17 C         142.7536  142.7553  169.6756 C.3     1  UNL1        0.1422
     18 O         141.3881  143.3507  169.8521 O.3     1  UNL1       -0.3538
     19 C         140.3657  143.2183  168.7625 C.3     1  UNL1        0.1422
     20 C         140.7086  142.4905  167.4966 C.3     1  UNL1        0.0322
     21 N         140.1941  144.0063  158.2823 N.am    1  UNL1       -0.2743
     22 C         139.6887  145.2512  157.6155 C.3     1  UNL1        0.1152
     23 C         141.3904  144.0717  159.1848 C.2     1  UNL1        0.2491
     24 O         142.0814  145.3820  159.4204 O.2     1  UNL1       -0.2699
     25 C         139.5031  142.6959  158.0467 C.3     1  UNL1        0.0943
     26 C         138.2923  142.3308  158.8532 C.3     1  UNL1        0.0311
     27 C         138.4506  141.6135  160.1611 C.3     1  UNL1        0.0868
     28 C         137.9787  144.3455  163.0006 C.3     1  UNL1        0.1107
     29 N         138.4169  143.6869  161.7261 N.am    1  UNL1       -0.3027
     30 C         138.0124  142.2720  161.4355 C.2     1  UNL1        0.2226
     31 O         137.1698  141.5157  162.4194 O.2     1  UNL1       -0.2751
     32 H         138.9699  144.1833  161.0804 H       1  UNL1        0.1495
@<TRIPOS>BOND
     1    28    29    1
     2    29    30   am
     3    30    31    2
     4    30    27    1
     5    27    26    1
     6    26    25    1
     7    25    21    1
     8    21    22    1
     9    21    23   am
    10    23    24    2
    11    23     1    1
    12     1     2   ar
    13     2     3   ar
    14     3     4   ar
    15     4     5   ar
    16     5     6   ar
    17     5     7   ar
    18     7     8   ar
    19     8     9   ar
    20     9    10    1
    21     8    11    1
    22    11    12    1
    23    12    13    1
    24    13    15    1
    25    15    16    1
    26    16    17    1
    27    17    18    1
    28    18    19    1
    29    19    20    1
    30    13    14    1
    31     6     1   ar
    32    14     7    1
    33     9     4   ar
    34    20    15    1
    35    29    32    1
@<TRIPOS>MOLECULE
*****
 32 35 0 0 0
SMALL
GASTEIGER

@<TRIPOS>ATOM
      1 C         141.8878  143.3931  160.5233 C.ar    1  UNL1        0.0537
      2 C         141.3421  141.9959  160.5299 C.ar    1  UNL1        0.0060
      3 C         140.3158  141.5868  159.5154 C.ar    1  UNL1        0.0173
      4 C         139.8352  142.5748  158.4943 C.ar    1  UNL1        0.0594
      5 C         140.3809  143.9720  158.4877 C.ar    1  UNL1        0.0130
      6 C         141.4072  144.3811  159.5022 C.ar    1  UNL1        0.0057
      7 C         139.7220  144.7217  157.3679 C.ar    1  UNL1       -0.0091
      8 C         138.7691  143.7879  156.6824 C.ar    1  UNL1        0.0331
      9 N         138.8391  142.4610  157.3786 N.ar    1  UNL1       -0.3289
     10 C         138.0512  141.2355  157.0217 C.3     1  UNL1        0.1301
     11 C         137.9609  144.2663  155.5129 C.3     1  UNL1        0.0435
     12 C         138.1056  145.6787  155.0289 C.3     1  UNL1        0.0066
     13 C         139.0584  146.6125  155.7144 C.3     1  UNL1        0.0049
     14 C         139.8667  146.1340  156.8839 C.3     1  UNL1        0.0275
     15 C         139.2031  148.0249  155.2303 C.3     1  UNL1        0.0053
     16 C         138.5948  149.1516  156.0117 C.3     1  UNL1        0.0322
     17 C         138.7394  150.5639  155.5277 C.3     1  UNL1        0.1422
     18 O         139.4924  150.8497  154.2621 O.3     1  UNL1       -0.3538
     19 C         140.1007  149.7230  153.4807 C.3     1  UNL1        0.1422
     20 C         139.9561  148.3106  153.9648 C.3     1  UNL1        0.0322
     21 N         142.5422  144.7465  162.6423 N.am    1  UNL1       -0.2743
     22 C         143.5685  145.1556  163.6568 C.3     1  UNL1        0.1152
     23 C         142.9142  143.8022  161.5379 C.2     1  UNL1        0.2491
     24 O         144.3125  143.2669  161.4480 O.2     1  UNL1       -0.2699
     25 C         141.1438  145.2818  162.7322 C.3     1  UNL1        0.0943
     26 C         140.1273  144.5844  163.5868 C.3     1  UNL1        0.0311
     27 C         138.7072  144.4668  163.1181 C.3     1  UNL1        0.0868
     28 C         137.6667  140.6373  163.0737 C.3     1  UNL1        0.1107
     29 N         138.1911  141.9581  163.5538 N.am    1  UNL1       -0.3027
     30 C         138.1828  143.1460  162.6380 C.2     1  UNL1        0.2226
     31 O         137.6502  143.0131  161.2421 O.2     1  UNL1       -0.2751
     32 H         138.5406  142.0454  164.4700 H       1  UNL1        0.1495
@<TRIPOS>BOND
     1    28    29    1
     2    29    30   am
     3    30    31    2
     4    30    27    1
     5    27    26    1
     6    26    25    1
     7    25    21    1
     8    21    22    1
     9    21    23   am
    10    23    24    2
    11    23     1    1
    12     1     2   ar
    13     2     3   ar
    14     3     4   ar
    15     4     5   ar
    16     5     6   ar
    17     5     7   ar
    18     7     8   ar
    19     8     9   ar
    20     9    10    1
    21     8    11    1
    22    11    12    1
    23    12    13    1
    24    13    15    1
    25    15    16    1
    26    16    17    1
    27    17    18    1
    28    18    19    1
    29    19    20    1
    30    13    14    1
    31     6     1   ar
    32    14     7    1
    33     9     4   ar
    34    20    15    1
    35    29    32    1
