@<TRIPOS>MOLECULE
*****
 35 39 0 0 0
SMALL
GASTEIGER

@<TRIPOS>ATOM
      1 N         140.4801  139.8636  164.5258 N.am    1  UNL1       -0.2681
      2 C         140.8342  138.7159  163.6272 C.2     1  UNL1        0.3079
      3 O         140.3886  137.3264  163.9744 O.2     1  UNL1       -0.2522
      4 N         141.6341  138.9578  162.3815 N.am    1  UNL1       -0.2594
      5 C         141.9882  137.8101  161.4829 C.3     1  UNL1        0.1016
      6 C         142.7880  138.0520  160.2372 C.3     1  UNL1        0.0672
      7 C         143.2336  139.4416  159.8901 C.ar    1  UNL1        0.0614
      8 N         144.0335  139.6835  158.6443 N.ar    1  UNL1       -0.2310
      9 C         144.4792  141.0730  158.2972 C.ar    1  UNL1        0.1648
     10 N         144.1250  142.2207  159.1958 N.ar    1  UNL1       -0.2267
     11 C         143.3252  141.9788  160.4415 C.ar    1  UNL1        0.0814
     12 C         142.8795  140.5892  160.7887 C.ar    1  UNL1        0.0291
     13 C         142.0797  140.3473  162.0343 C.3     1  UNL1        0.1243
     14 H         140.7726  140.7756  164.2979 H       1  UNL1        0.1564
     15 C         142.9711  143.1265  161.3401 C.ar    1  UNL1        0.0135
     16 C         143.9480  143.5965  162.3767 C.ar    1  UNL1        0.0012
     17 C         143.5938  144.7442  163.2753 C.ar    1  UNL1        0.0000
     18 C         142.2628  145.4219  163.1372 C.ar    1  UNL1       -0.0003
     19 C         141.2859  144.9518  162.1005 C.ar    1  UNL1       -0.0042
     20 C         141.6400  143.8042  161.2019 C.ar    1  UNL1       -0.0204
     21 C         140.6631  143.3341  160.1653 C.3     1  UNL1        0.0311
     22 C         139.3419  139.9477  168.3268 C.ar    1  UNL1       -0.0210
     23 C         138.0808  139.1381  168.2630 C.ar    1  UNL1       -0.0042
     24 C         137.6195  138.5702  166.9535 C.ar    1  UNL1        0.0010
     25 C         138.4192  138.8121  165.7078 C.ar    1  UNL1        0.0147
     26 C         139.6803  139.6217  165.7715 C.ar    1  UNL1        0.0513
     27 C         140.1416  140.1895  167.0810 C.ar    1  UNL1        0.0104
     28 C         139.9630  141.9984  169.7961 C.3     1  UNL1        0.0050
     29 C         139.8032  140.5155  169.6362 C.3     1  UNL1        0.0264
     30 C         145.2789  141.3149  157.0515 C.ar    1  UNL1        0.0741
     31 C         146.3550  142.3600  157.0422 C.ar    1  UNL1        0.1052
     32 N         147.1547  142.6019  155.7965 N.ar    1  UNL1       -0.2223
     33 C         146.8786  141.7988  154.5601 C.ar    1  UNL1        0.1989
     34 N         145.8026  140.7537  154.5694 N.ar    1  UNL1       -0.2223
     35 C         145.0028  140.5118  155.8151 C.ar    1  UNL1        0.1052
@<TRIPOS>BOND
     1    28    29    1
     2    29    22    1
     3    22    23   ar
     4    23    24   ar
     5    24    25   ar
     6    25    26   ar
     7    26     1    1
     8     1     2   am
     9     2     3    2
    10     2     4   am
    11     4     5    1
    12     5     6    1
    13     6     7    1
    14     7     8   ar
    15     8     9   ar
    16     9    30    1
    17    30    31   ar
    18    31    32   ar
    19    32    33   ar
    20    33    34   ar
    21    34    35   ar
    22     9    10   ar
    23    10    11   ar
    24    11    15    1
    25    15    16   ar
    26    16    17   ar
    27    17    18   ar
    28    18    19   ar
    29    19    20   ar
    30    20    21    1
    31    11    12   ar
    32    12    13    1
    33    26    27   ar
    34    27    22   ar
    35    13     4    1
    36    12     7   ar
    37    35    30   ar
    38    20    15   ar
    39     1    14    1
@<TRIPOS>MOLECULE
*****
 35 39 0 0 0
SMALL
GASTEIGER

@<TRIPOS>ATOM
      1 N         140.8807  144.1264  160.2196 N.am    1  UNL1       -0.2681
      2 C         140.0651  144.8927  161.2184 C.2     1  UNL1        0.3079
      3 O         139.2699  146.0864  160.7797 O.2     1  UNL1       -0.2522
      4 N         140.0448  144.4652  162.6562 N.am    1  UNL1       -0.2594
      5 C         139.2293  145.2315  163.6550 C.3     1  UNL1        0.1016
      6 C         139.2090  144.8040  165.0926 C.3     1  UNL1        0.0672
      7 C         140.0042  143.6102  165.5314 C.ar    1  UNL1        0.0614
      8 N         139.9839  143.1827  166.9691 N.ar    1  UNL1       -0.2310
      9 C         140.7791  141.9889  167.4079 C.ar    1  UNL1        0.1648
     10 N         141.5947  141.2227  166.4090 N.ar    1  UNL1       -0.2267
     11 C         141.6150  141.6502  164.9713 C.ar    1  UNL1        0.0814
     12 C         140.8197  142.8439  164.5326 C.ar    1  UNL1        0.0291
     13 C         140.8400  143.2714  163.0949 C.3     1  UNL1        0.1243
     14 H         141.4026  143.3429  160.5076 H       1  UNL1        0.1564
     15 C         142.4305  140.8839  163.9725 C.ar    1  UNL1        0.0135
     16 C         141.8091  139.7548  163.2050 C.ar    1  UNL1        0.0012
     17 C         142.6247  138.9885  162.2062 C.ar    1  UNL1        0.0000
     18 C         144.0616  139.3513  161.9748 C.ar    1  UNL1       -0.0003
     19 C         144.6830  140.4804  162.7423 C.ar    1  UNL1       -0.0042
     20 C         143.8675  141.2467  163.7411 C.ar    1  UNL1       -0.0204
     21 C         144.4889  142.3758  164.5086 C.3     1  UNL1        0.0311
     22 C         139.8206  144.5539  156.4191 C.ar    1  UNL1       -0.0210
     23 C         140.9416  145.4088  155.9066 C.ar    1  UNL1       -0.0042
     24 C         142.0422  145.8362  156.8318 C.ar    1  UNL1        0.0010
     25 C         142.0219  145.4087  158.2694 C.ar    1  UNL1        0.0147
     26 C         140.9010  144.5539  158.7819 C.ar    1  UNL1        0.0513
     27 C         139.8004  144.1265  157.8568 C.ar    1  UNL1        0.0104
     28 C         137.7376  145.1367  154.9800 C.3     1  UNL1        0.0050
     29 C         138.7200  144.1265  155.4940 C.3     1  UNL1        0.0264
     30 C         140.7588  141.5614  168.8455 C.ar    1  UNL1        0.0741
     31 C         141.5206  142.3462  169.8722 C.ar    1  UNL1        0.1052
     32 N         141.5003  141.9187  171.3098 N.ar    1  UNL1       -0.2223
     33 C         140.7183  140.7065  171.7208 C.ar    1  UNL1        0.1989
     34 N         139.9565  139.9217  170.6942 N.ar    1  UNL1       -0.2223
     35 C         139.9768  140.3492  169.2565 C.ar    1  UNL1        0.1052
@<TRIPOS>BOND
     1    28    29    1
     2    29    22    1
     3    22    23   ar
     4    23    24   ar
     5    24    25   ar
     6    25    26   ar
     7    26     1    1
     8     1     2   am
     9     2     3    2
    10     2     4   am
    11     4     5    1
    12     5     6    1
    13     6     7    1
    14     7     8   ar
    15     8     9   ar
    16     9    30    1
    17    30    31   ar
    18    31    32   ar
    19    32    33   ar
    20    33    34   ar
    21    34    35   ar
    22     9    10   ar
    23    10    11   ar
    24    11    15    1
    25    15    16   ar
    26    16    17   ar
    27    17    18   ar
    28    18    19   ar
    29    19    20   ar
    30    20    21    1
    31    11    12   ar
    32    12    13    1
    33    26    27   ar
    34    27    22   ar
    35    13     4    1
    36    12     7   ar
    37    35    30   ar
    38    20    15   ar
    39     1    14    1
@<TRIPOS>MOLECULE
*****
 35 39 0 0 0
SMALL
GASTEIGER

@<TRIPOS>ATOM
      1 N         140.6307  140.0837  165.3121 N.am    1  UNL1       -0.2681
      2 C         139.9016  139.0130  164.5560 C.2     1  UNL1        0.3079
      3 O         139.7397  137.6482  165.1569 O.2     1  UNL1       -0.2522
      4 N         139.3343  139.3070  163.1988 N.am    1  UNL1       -0.2594
      5 C         138.6052  138.2362  162.4427 C.3     1  UNL1        0.1016
      6 C         138.0379  138.5303  161.0856 C.3     1  UNL1        0.0672
      7 C         138.1998  139.8951  160.4846 C.ar    1  UNL1        0.0614
      8 N         137.6326  140.1891  159.1274 N.ar    1  UNL1       -0.2310
      9 C         137.7945  141.5538  158.5265 C.ar    1  UNL1        0.1648
     10 N         138.5237  142.6246  159.2827 N.ar    1  UNL1       -0.2267
     11 C         139.0909  142.3306  160.6398 C.ar    1  UNL1        0.0814
     12 C         138.9290  140.9658  161.2407 C.ar    1  UNL1        0.0291
     13 C         139.4962  140.6718  162.5978 C.3     1  UNL1        0.1243
     14 H         140.7370  140.9795  164.9176 H       1  UNL1        0.1564
     15 C         139.8201  143.4013  161.3959 C.ar    1  UNL1        0.0135
     16 C         141.2588  143.6912  161.0859 C.ar    1  UNL1        0.0012
     17 C         141.9879  144.7621  161.8421 C.ar    1  UNL1        0.0000
     18 C         141.2784  145.5429  162.9082 C.ar    1  UNL1       -0.0003
     19 C         139.8397  145.2530  163.2183 C.ar    1  UNL1       -0.0042
     20 C         139.1106  144.1823  162.4622 C.ar    1  UNL1       -0.0204
     21 C         137.6719  143.8924  162.7722 C.3     1  UNL1        0.0311
     22 C         141.0127  139.9036  169.2582 C.ar    1  UNL1       -0.0210
     23 C         142.3324  139.2018  169.3835 C.ar    1  UNL1       -0.0042
     24 C         143.0850  138.7940  168.1517 C.ar    1  UNL1        0.0010
     25 C         142.5178  139.0880  166.7946 C.ar    1  UNL1        0.0147
     26 C         141.1980  139.7897  166.6693 C.ar    1  UNL1        0.0513
     27 C         140.4455  140.1975  167.9011 C.ar    1  UNL1        0.0104
     28 C         140.6668  141.5426  171.2442 C.3     1  UNL1        0.0050
     29 C         140.2602  140.3114  170.4900 C.3     1  UNL1        0.0264
     30 C         137.2273  141.8479  157.1694 C.ar    1  UNL1        0.0741
     31 C         136.2349  140.9079  156.5515 C.ar    1  UNL1        0.1052
     32 N         135.6677  141.2019  155.1944 N.ar    1  UNL1       -0.2223
     33 C         136.0927  142.4359  154.4551 C.ar    1  UNL1        0.1989
     34 N         137.0850  143.3759  155.0730 N.ar    1  UNL1       -0.2223
     35 C         137.6523  143.0819  156.4301 C.ar    1  UNL1        0.1052
@<TRIPOS>BOND
     1    28    29    1
     2    29    22    1
     3    22    23   ar
     4    23    24   ar
     5    24    25   ar
     6    25    26   ar
     7    26     1    1
     8     1     2   am
     9     2     3    2
    10     2     4   am
    11     4     5    1
    12     5     6    1
    13     6     7    1
    14     7     8   ar
    15     8     9   ar
    16     9    30    1
    17    30    31   ar
    18    31    32   ar
    19    32    33   ar
    20    33    34   ar
    21    34    35   ar
    22     9    10   ar
    23    10    11   ar
    24    11    15    1
    25    15    16   ar
    26    16    17   ar
    27    17    18   ar
    28    18    19   ar
    29    19    20   ar
    30    20    21    1
    31    11    12   ar
    32    12    13    1
    33    26    27   ar
    34    27    22   ar
    35    13     4    1
    36    12     7   ar
    37    35    30   ar
    38    20    15   ar
    39     1    14    1
@<TRIPOS>MOLECULE
*****
 35 39 0 0 0
SMALL
GASTEIGER

@<TRIPOS>ATOM
      1 N         143.0119  140.9946  159.8796 N.am    1  UNL1       -0.2681
      2 C         143.6087  139.9843  160.8140 C.2     1  UNL1        0.3079
      3 O         144.4605  138.8742  160.2737 O.2     1  UNL1       -0.2522
      4 N         143.3537  140.0842  162.2889 N.am    1  UNL1       -0.2594
      5 C         143.9505  139.0739  163.2233 C.3     1  UNL1        0.1016
      6 C         143.6954  139.1738  164.6980 C.3     1  UNL1        0.0672
      7 C         142.8436  140.2839  165.2384 C.ar    1  UNL1        0.0614
      8 N         142.5886  140.3838  166.7132 N.ar    1  UNL1       -0.2310
      9 C         141.7368  141.4940  167.2536 C.ar    1  UNL1        0.1648
     10 N         141.1400  142.5043  166.3191 N.ar    1  UNL1       -0.2267
     11 C         141.3950  142.4044  164.8443 C.ar    1  UNL1        0.0814
     12 C         142.2468  141.2942  164.3040 C.ar    1  UNL1        0.0291
     13 C         142.5019  141.1943  162.8292 C.3     1  UNL1        0.1243
     14 H         142.4528  141.7232  160.2343 H       1  UNL1        0.1564
     15 C         140.7983  143.4146  163.9099 C.ar    1  UNL1        0.0135
     16 C         139.4125  143.2126  163.3725 C.ar    1  UNL1        0.0012
     17 C         138.8157  144.2229  162.4380 C.ar    1  UNL1        0.0000
     18 C         139.6047  145.4353  162.0411 C.ar    1  UNL1       -0.0003
     19 C         140.9905  145.6374  162.5785 C.ar    1  UNL1       -0.0042
     20 C         141.5872  144.6271  163.5129 C.ar    1  UNL1       -0.0204
     21 C         142.9730  144.8292  164.0503 C.3     1  UNL1        0.0311
     22 C         144.7867  141.3533  156.3481 C.ar    1  UNL1       -0.0210
     23 C         143.7770  140.6951  155.4553 C.ar    1  UNL1       -0.0042
     24 C         142.5122  140.1367  156.0372 C.ar    1  UNL1        0.0010
     25 C         142.2572  140.2365  157.5120 C.ar    1  UNL1        0.0147
     26 C         143.2669  140.8947  158.4048 C.ar    1  UNL1        0.0513
     27 C         144.5317  141.4531  157.8229 C.ar    1  UNL1        0.0104
     28 C         147.0929  142.5064  156.6671 C.3     1  UNL1        0.0050
     29 C         146.0515  141.9117  155.7662 C.3     1  UNL1        0.0264
     30 C         141.4818  141.5939  168.7283 C.ar    1  UNL1        0.0741
     31 C         142.2857  142.5437  169.5659 C.ar    1  UNL1        0.1052
     32 N         142.0307  142.6436  171.0406 N.ar    1  UNL1       -0.2223
     33 C         140.9717  141.7937  171.6779 C.ar    1  UNL1        0.1989
     34 N         140.1678  140.8438  170.8404 N.ar    1  UNL1       -0.2223
     35 C         140.4228  140.7439  169.3656 C.ar    1  UNL1        0.1052
@<TRIPOS>BOND
     1    28    29    1
     2    29    22    1
     3    22    23   ar
     4    23    24   ar
     5    24    25   ar
     6    25    26   ar
     7    26     1    1
     8     1     2   am
     9     2     3    2
    10     2     4   am
    11     4     5    1
    12     5     6    1
    13     6     7    1
    14     7     8   ar
    15     8     9   ar
    16     9    30    1
    17    30    31   ar
    18    31    32   ar
    19    32    33   ar
    20    33    34   ar
    21    34    35   ar
    22     9    10   ar
    23    10    11   ar
    24    11    15    1
    25    15    16   ar
    26    16    17   ar
    27    17    18   ar
    28    18    19   ar
    29    19    20   ar
    30    20    21    1
    31    11    12   ar
    32    12    13    1
    33    26    27   ar
    34    27    22   ar
    35    13     4    1
    36    12     7   ar
    37    35    30   ar
    38    20    15   ar
    39     1    14    1
@<TRIPOS>MOLECULE
*****
 35 39 0 0 0
SMALL
GASTEIGER

@<TRIPOS>ATOM
      1 N         139.0773  141.1052  158.6997 N.am    1  UNL1       -0.2681
      2 C         139.2307  139.7145  159.2402 C.2     1  UNL1        0.3079
      3 O         139.0356  138.5329  158.3369 O.2     1  UNL1       -0.2522
      4 N         139.5793  139.5052  160.6841 N.am    1  UNL1       -0.2594
      5 C         139.7327  138.1144  161.2246 C.3     1  UNL1        0.1016
      6 C         140.0813  137.9052  162.6685 C.3     1  UNL1        0.0672
      7 C         140.2765  139.0867  163.5717 C.ar    1  UNL1        0.0614
      8 N         140.6251  138.8774  165.0156 N.ar    1  UNL1       -0.2310
      9 C         140.8203  140.0589  165.9189 C.ar    1  UNL1        0.1648
     10 N         140.6668  141.4497  165.3783 N.ar    1  UNL1       -0.2267
     11 C         140.3183  141.6590  163.9345 C.ar    1  UNL1        0.0814
     12 C         140.1231  140.4775  163.0312 C.ar    1  UNL1        0.0291
     13 C         139.7745  140.6867  161.5874 C.3     1  UNL1        0.1243
     14 H         139.2054  141.8807  159.2925 H       1  UNL1        0.1564
     15 C         140.1648  143.0497  163.3940 C.ar    1  UNL1        0.0135
     16 C         141.3568  143.7773  162.8463 C.ar    1  UNL1        0.0012
     17 C         141.2033  145.1681  162.3057 C.ar    1  UNL1        0.0000
     18 C         139.8579  145.8313  162.3129 C.ar    1  UNL1       -0.0003
     19 C         138.6660  145.1038  162.8605 C.ar    1  UNL1       -0.0042
     20 C         138.8194  143.7130  163.4011 C.ar    1  UNL1       -0.0204
     21 C         137.6275  142.9855  163.9487 C.3     1  UNL1        0.0311
     22 C         136.9423  141.5832  155.3886 C.ar    1  UNL1       -0.0210
     23 C         138.0314  141.7330  154.3682 C.ar    1  UNL1       -0.0042
     24 C         139.4692  141.6737  154.7916 C.ar    1  UNL1        0.0010
     25 C         139.8178  141.4644  156.2354 C.ar    1  UNL1        0.0147
     26 C         138.7287  141.3145  157.2558 C.ar    1  UNL1        0.0513
     27 C         137.2909  141.3739  156.8324 C.ar    1  UNL1        0.0104
     28 C         134.9410  140.5772  154.0721 C.3     1  UNL1        0.0050
     29 C         135.5045  141.6425  154.9652 C.3     1  UNL1        0.0264
     30 C         141.1689  139.8497  167.3627 C.ar    1  UNL1        0.0741
     31 C         140.1146  140.0031  168.4187 C.ar    1  UNL1        0.1052
     32 N         140.4632  139.7939  169.8625 N.ar    1  UNL1       -0.2223
     33 C         141.8660  139.4312  170.2505 C.ar    1  UNL1        0.1989
     34 N         142.9203  139.2778  169.1946 N.ar    1  UNL1       -0.2223
     35 C         142.5717  139.4871  167.7507 C.ar    1  UNL1        0.1052
@<TRIPOS>BOND
     1    28    29    1
     2    29    22    1
     3    22    23   ar
     4    23    24   ar
     5    24    25   ar
     6    25    26   ar
     7    26     1    1
     8     1     2   am
     9     2     3    2
    10     2     4   am
    11     4     5    1
    12     5     6    1
    13     6     7    1
    14     7     8   ar
    15     8     9   ar
    16     9    30    1
    17    30    31   ar
    18    31    32   ar
    19    32    33   ar
    20    33    34   ar
    21    34    35   ar
    22     9    10   ar
    23    10    11   ar
    24    11    15    1
    25    15    16   ar
    26    16    17   ar
    27    17    18   ar
    28    18    19   ar
    29    19    20   ar
    30    20    21    1
    31    11    12   ar
    32    12    13    1
    33    26    27   ar
    34    27    22   ar
    35    13     4    1
    36    12     7   ar
    37    35    30   ar
    38    20    15   ar
    39     1    14    1
@<TRIPOS>MOLECULE
*****
 35 39 0 0 0
SMALL
GASTEIGER

@<TRIPOS>ATOM
      1 N         140.6769  143.1960  159.2374 N.am    1  UNL1       -0.2681
      2 C         141.1944  144.2147  160.2092 C.2     1  UNL1        0.3079
      3 O         141.7217  145.5273  159.7102 O.2     1  UNL1       -0.2522
      4 N         141.1845  143.9208  161.6801 N.am    1  UNL1       -0.2594
      5 C         141.7020  144.9395  162.6520 C.3     1  UNL1        0.1016
      6 C         141.6921  144.6456  164.1228 C.3     1  UNL1        0.0672
      7 C         141.1647  143.3330  164.6219 C.ar    1  UNL1        0.0614
      8 N         141.1549  143.0391  166.0928 N.ar    1  UNL1       -0.2310
      9 C         140.6275  141.7266  166.5919 C.ar    1  UNL1        0.1648
     10 N         140.1101  140.7078  165.6199 N.ar    1  UNL1       -0.2267
     11 C         140.1200  141.0017  164.1491 C.ar    1  UNL1        0.0814
     12 C         140.6473  142.3143  163.6500 C.ar    1  UNL1        0.0291
     13 C         140.6572  142.6082  162.1792 C.3     1  UNL1        0.1243
     14 H         140.3308  142.3345  159.5649 H       1  UNL1        0.1564
     15 C         139.6025  139.9831  163.1773 C.ar    1  UNL1        0.0135
     16 C         140.4993  138.8802  162.6982 C.ar    1  UNL1        0.0012
     17 C         139.9818  137.8615  161.7263 C.ar    1  UNL1        0.0000
     18 C         138.5676  137.9457  161.2336 C.ar    1  UNL1       -0.0003
     19 C         137.6708  139.0485  161.7126 C.ar    1  UNL1       -0.0042
     20 C         138.1882  140.0672  162.6844 C.ar    1  UNL1       -0.0204
     21 C         137.2915  141.1701  163.1635 C.3     1  UNL1        0.0311
     22 C         139.6666  144.7019  155.7073 C.ar    1  UNL1       -0.0210
     23 C         140.7065  144.0777  154.8247 C.ar    1  UNL1       -0.0042
     24 C         141.7365  143.1596  155.4130 C.ar    1  UNL1        0.0010
     25 C         141.7267  142.8657  156.8839 C.ar    1  UNL1        0.0147
     26 C         140.6868  143.4899  157.7664 C.ar    1  UNL1        0.0513
     27 C         139.6568  144.4080  157.1781 C.ar    1  UNL1        0.0104
     28 C         138.8600  147.1031  155.1300 C.3     1  UNL1        0.0050
     29 C         138.6365  145.6200  155.1190 C.3     1  UNL1        0.0264
     30 C         140.6177  141.4327  168.0627 C.ar    1  UNL1        0.0741
     31 C         140.4818  142.5533  169.0506 C.ar    1  UNL1        0.1052
     32 N         140.4719  142.2594  170.5215 N.ar    1  UNL1       -0.2223
     33 C         140.5979  140.8449  171.0045 C.ar    1  UNL1        0.1989
     34 N         140.7337  139.7243  170.0167 N.ar    1  UNL1       -0.2223
     35 C         140.7436  140.0182  168.5458 C.ar    1  UNL1        0.1052
@<TRIPOS>BOND
     1    28    29    1
     2    29    22    1
     3    22    23   ar
     4    23    24   ar
     5    24    25   ar
     6    25    26   ar
     7    26     1    1
     8     1     2   am
     9     2     3    2
    10     2     4   am
    11     4     5    1
    12     5     6    1
    13     6     7    1
    14     7     8   ar
    15     8     9   ar
    16     9    30    1
    17    30    31   ar
    18    31    32   ar
    19    32    33   ar
    20    33    34   ar
    21    34    35   ar
    22     9    10   ar
    23    10    11   ar
    24    11    15    1
    25    15    16   ar
    26    16    17   ar
    27    17    18   ar
    28    18    19   ar
    29    19    20   ar
    30    20    21    1
    31    11    12   ar
    32    12    13    1
    33    26    27   ar
    34    27    22   ar
    35    13     4    1
    36    12     7   ar
    37    35    30   ar
    38    20    15   ar
    39     1    14    1
@<TRIPOS>MOLECULE
*****
 35 39 0 0 0
SMALL
GASTEIGER

@<TRIPOS>ATOM
      1 N         139.1620  140.2926  160.0076 N.am    1  UNL1       -0.2681
      2 C         139.0906  139.1137  160.9322 C.2     1  UNL1        0.3079
      3 O         138.7767  137.7516  160.3880 O.2     1  UNL1       -0.2522
      4 N         139.3329  139.2969  162.4012 N.am    1  UNL1       -0.2594
      5 C         139.2615  138.1180  163.3258 C.3     1  UNL1        0.1016
      6 C         139.5039  138.3012  164.7947 C.3     1  UNL1        0.0672
      7 C         139.8177  139.6633  165.3389 C.ar    1  UNL1        0.0614
      8 N         140.0601  139.8464  166.8079 N.ar    1  UNL1       -0.2310
      9 C         140.3739  141.2085  167.3521 C.ar    1  UNL1        0.1648
     10 N         140.4453  142.3875  166.4274 N.ar    1  UNL1       -0.2267
     11 C         140.2029  142.2043  164.9585 C.ar    1  UNL1        0.0814
     12 C         139.8891  140.8422  164.4143 C.ar    1  UNL1        0.0291
     13 C         139.6468  140.6590  162.9454 C.3     1  UNL1        0.1243
     14 H         139.3680  141.1866  160.3648 H       1  UNL1        0.1564
     15 C         140.2744  143.3832  164.0339 C.ar    1  UNL1        0.0135
     16 C         141.5749  143.7463  163.3806 C.ar    1  UNL1        0.0012
     17 C         141.6463  144.9253  162.4559 C.ar    1  UNL1        0.0000
     18 C         140.4172  145.7411  162.1845 C.ar    1  UNL1       -0.0003
     19 C         139.1167  145.3780  162.8378 C.ar    1  UNL1       -0.0042
     20 C         139.0452  144.1991  163.7624 C.ar    1  UNL1       -0.0204
     21 C         137.7447  143.8360  164.4157 C.3     1  UNL1        0.0311
     22 C         139.5370  138.9848  156.2794 C.ar    1  UNL1       -0.0210
     23 C         138.4349  139.7431  155.6008 C.ar    1  UNL1       -0.0042
     24 C         137.5752  140.6844  156.3912 C.ar    1  UNL1        0.0010
     25 C         137.8175  140.8676  157.8600 C.ar    1  UNL1        0.0147
     26 C         138.9196  140.1094  158.5386 C.ar    1  UNL1        0.0513
     27 C         139.7794  139.1680  157.7483 C.ar    1  UNL1        0.0104
     28 C         140.8960  136.7765  156.1179 C.3     1  UNL1        0.0050
     29 C         140.3968  138.0435  155.4891 C.3     1  UNL1        0.0264
     30 C         140.6163  141.3917  168.8210 C.ar    1  UNL1        0.0741
     31 C         141.4487  142.5414  169.3061 C.ar    1  UNL1        0.1052
     32 N         141.6911  142.7246  170.7750 N.ar    1  UNL1       -0.2223
     33 C         141.1011  141.7582  171.7588 C.ar    1  UNL1        0.1989
     34 N         140.2686  140.6086  171.2737 N.ar    1  UNL1       -0.2223
     35 C         140.0262  140.4253  169.8048 C.ar    1  UNL1        0.1052
@<TRIPOS>BOND
     1    28    29    1
     2    29    22    1
     3    22    23   ar
     4    23    24   ar
     5    24    25   ar
     6    25    26   ar
     7    26     1    1
     8     1     2   am
     9     2     3    2
    10     2     4   am
    11     4     5    1
    12     5     6    1
    13     6     7    1
    14     7     8   ar
    15     8     9   ar
    16     9    30    1
    17    30    31   ar
    18    31    32   ar
    19    32    33   ar
    20    33    34   ar
    21    34    35   ar
    22     9    10   ar
    23    10    11   ar
    24    11    15    1
    25    15    16   ar
    26    16    17   ar
    27    17    18   ar
    28    18    19   ar
    29    19    20   ar
    30    20    21    1
    31    11    12   ar
    32    12    13    1
    33    26    27   ar
    34    27    22   ar
    35    13     4    1
    36    12     7   ar
    37    35    30   ar
    38    20    15   ar
    39     1    14    1
@<TRIPOS>MOLECULE
*****
 35 39 0 0 0
SMALL
GASTEIGER

@<TRIPOS>ATOM
      1 N         139.2241  140.4915  159.8580 N.am    1  UNL1       -0.2681
      2 C         139.1697  139.2881  160.7517 C.2     1  UNL1        0.3079
      3 O         138.9221  137.9295  160.1660 O.2     1  UNL1       -0.2522
      4 N         139.3628  139.4432  162.2312 N.am    1  UNL1       -0.2594
      5 C         139.3084  138.2397  163.1249 C.3     1  UNL1        0.1016
      6 C         139.5016  138.3949  164.6042 C.3     1  UNL1        0.0672
      7 C         139.7492  139.7534  165.1899 C.ar    1  UNL1        0.0614
      8 N         139.9424  139.9086  166.6693 N.ar    1  UNL1       -0.2310
      9 C         140.1899  141.2671  167.2550 C.ar    1  UNL1        0.1648
     10 N         140.2443  142.4706  166.3612 N.ar    1  UNL1       -0.2267
     11 C         140.0511  142.3154  164.8818 C.ar    1  UNL1        0.0814
     12 C         139.8036  140.9569  164.2962 C.ar    1  UNL1        0.0291
     13 C         139.6104  140.8017  162.8168 C.3     1  UNL1        0.1243
     14 H         139.3865  141.3831  160.2424 H       1  UNL1        0.1564
     15 C         140.1055  143.5189  163.9881 C.ar    1  UNL1        0.0135
     16 C         138.8347  144.1688  163.5272 C.ar    1  UNL1        0.0012
     17 C         138.8891  145.3723  162.6334 C.ar    1  UNL1        0.0000
     18 C         140.2144  145.9258  162.2007 C.ar    1  UNL1       -0.0003
     19 C         141.4852  145.2758  162.6616 C.ar    1  UNL1       -0.0042
     20 C         141.4308  144.0724  163.5553 C.ar    1  UNL1       -0.0204
     21 C         142.7017  143.4225  164.0163 C.3     1  UNL1        0.0311
     22 C         137.5413  140.5905  156.2651 C.ar    1  UNL1       -0.0210
     23 C         138.6445  140.0262  155.4198 C.ar    1  UNL1       -0.0042
     24 C         139.9408  139.6170  156.0539 C.ar    1  UNL1        0.0010
     25 C         140.1340  139.7720  157.5332 C.ar    1  UNL1        0.0147
     26 C         139.0309  140.3364  158.3785 C.ar    1  UNL1        0.0513
     27 C         137.7345  140.7456  157.7445 C.ar    1  UNL1        0.0104
     28 C         135.4157  139.9871  154.8985 C.3     1  UNL1        0.0050
     29 C         136.2450  140.9998  155.6311 C.3     1  UNL1        0.0264
     30 C         140.3831  141.4223  168.7344 C.ar    1  UNL1        0.0741
     31 C         140.9191  142.7084  169.2900 C.ar    1  UNL1        0.1052
     32 N         141.1122  142.8636  170.7693 N.ar    1  UNL1       -0.2223
     33 C         140.7695  141.7326  171.6932 C.ar    1  UNL1        0.1989
     34 N         140.2335  140.4465  171.1376 N.ar    1  UNL1       -0.2223
     35 C         140.0403  140.2913  169.6582 C.ar    1  UNL1        0.1052
@<TRIPOS>BOND
     1    28    29    1
     2    29    22    1
     3    22    23   ar
     4    23    24   ar
     5    24    25   ar
     6    25    26   ar
     7    26     1    1
     8     1     2   am
     9     2     3    2
    10     2     4   am
    11     4     5    1
    12     5     6    1
    13     6     7    1
    14     7     8   ar
    15     8     9   ar
    16     9    30    1
    17    30    31   ar
    18    31    32   ar
    19    32    33   ar
    20    33    34   ar
    21    34    35   ar
    22     9    10   ar
    23    10    11   ar
    24    11    15    1
    25    15    16   ar
    26    16    17   ar
    27    17    18   ar
    28    18    19   ar
    29    19    20   ar
    30    20    21    1
    31    11    12   ar
    32    12    13    1
    33    26    27   ar
    34    27    22   ar
    35    13     4    1
    36    12     7   ar
    37    35    30   ar
    38    20    15   ar
    39     1    14    1
@<TRIPOS>MOLECULE
*****
 35 39 0 0 0
SMALL
GASTEIGER

@<TRIPOS>ATOM
      1 N         141.9714  140.6190  165.5253 N.am    1  UNL1       -0.2681
      2 C         142.4876  139.4408  164.7539 C.2     1  UNL1        0.3079
      3 O         143.4334  138.4748  165.4038 O.2     1  UNL1       -0.2522
      4 N         142.0580  139.2284  163.3324 N.am    1  UNL1       -0.2594
      5 C         142.5741  138.0502  162.5610 C.3     1  UNL1        0.1016
      6 C         142.1445  137.8379  161.1396 C.3     1  UNL1        0.0672
      7 C         141.1987  138.8038  160.4897 C.ar    1  UNL1        0.0614
      8 N         140.7691  138.5915  159.0683 N.ar    1  UNL1       -0.2310
      9 C         139.8233  139.5575  158.4184 C.ar    1  UNL1        0.1648
     10 N         139.3071  140.7358  159.1899 N.ar    1  UNL1       -0.2267
     11 C         139.7367  140.9481  160.6113 C.ar    1  UNL1        0.0814
     12 C         140.6825  139.9821  161.2612 C.ar    1  UNL1        0.0291
     13 C         141.1122  140.1944  162.6825 C.3     1  UNL1        0.1243
     14 H         141.3506  141.2530  165.0988 H       1  UNL1        0.1564
     15 C         139.2205  142.1263  161.3827 C.ar    1  UNL1        0.0135
     16 C         138.0073  141.9801  162.2526 C.ar    1  UNL1        0.0012
     17 C         137.4912  143.1584  163.0241 C.ar    1  UNL1        0.0000
     18 C         138.1882  144.4830  162.9257 C.ar    1  UNL1       -0.0003
     19 C         139.4014  144.6292  162.0558 C.ar    1  UNL1       -0.0042
     20 C         139.9176  143.4510  161.2843 C.ar    1  UNL1       -0.0204
     21 C         141.1308  143.5972  160.4144 C.3     1  UNL1        0.0311
     22 C         142.6280  139.9579  169.3830 C.ar    1  UNL1       -0.0210
     23 C         143.2602  141.2560  169.7895 C.ar    1  UNL1       -0.0042
     24 C         143.4628  142.3418  168.7746 C.ar    1  UNL1        0.0010
     25 C         143.0332  142.1295  167.3532 C.ar    1  UNL1        0.0147
     26 C         142.4010  140.8314  166.9468 C.ar    1  UNL1        0.0513
     27 C         142.1984  139.7456  167.9617 C.ar    1  UNL1        0.0104
     28 C         143.2984  137.6525  170.3759 C.3     1  UNL1        0.0050
     29 C         142.4254  138.8721  170.3979 C.3     1  UNL1        0.0264
     30 C         139.3937  139.3452  156.9970 C.ar    1  UNL1        0.0741
     31 C         139.6038  138.0126  156.3410 C.ar    1  UNL1        0.1052
     32 N         139.1742  137.8003  154.9197 N.ar    1  UNL1       -0.2223
     33 C         138.5344  138.9205  154.1542 C.ar    1  UNL1        0.1989
     34 N         138.3243  140.2530  154.8101 N.ar    1  UNL1       -0.2223
     35 C         138.7539  140.4653  156.2316 C.ar    1  UNL1        0.1052
@<TRIPOS>BOND
     1    28    29    1
     2    29    22    1
     3    22    23   ar
     4    23    24   ar
     5    24    25   ar
     6    25    26   ar
     7    26     1    1
     8     1     2   am
     9     2     3    2
    10     2     4   am
    11     4     5    1
    12     5     6    1
    13     6     7    1
    14     7     8   ar
    15     8     9   ar
    16     9    30    1
    17    30    31   ar
    18    31    32   ar
    19    32    33   ar
    20    33    34   ar
    21    34    35   ar
    22     9    10   ar
    23    10    11   ar
    24    11    15    1
    25    15    16   ar
    26    16    17   ar
    27    17    18   ar
    28    18    19   ar
    29    19    20   ar
    30    20    21    1
    31    11    12   ar
    32    12    13    1
    33    26    27   ar
    34    27    22   ar
    35    13     4    1
    36    12     7   ar
    37    35    30   ar
    38    20    15   ar
    39     1    14    1
