@<TRIPOS>MOLECULE
*****
 33 38 0 0 0
SMALL
GASTEIGER

@<TRIPOS>ATOM
      1 C         142.5486  136.7156  157.7559 C.3     1  UNL1        0.1161
      2 C         143.2769  135.4211  157.5462 C.3     1  UNL1        0.0510
      3 C         142.9151  134.5358  156.3907 C.2     1  UNL1       -0.0044
      4 C         141.8250  134.9448  155.4450 C.2     1  UNL1        0.0689
      5 N         141.6895  133.8743  154.4031 N.2     1  UNL1       -0.2526
      6 C         142.6957  132.8036  154.7048 C.2     1  UNL1        0.0627
      7 C         143.0201  131.5092  154.0198 C.3     1  UNL1        0.0717
      8 C         144.1020  130.6237  154.5632 C.2     1  UNL1       -0.0198
      9 C         144.8595  131.0325  155.7916 C.2     1  UNL1       -0.0042
     10 C         144.5351  132.3269  156.4767 C.2     1  UNL1        0.0006
     11 C         143.4533  133.2124  155.9333 C.2     1  UNL1        0.0111
     12 C         141.0967  136.2393  155.6547 C.3     1  UNL1        0.0947
     13 N         141.4585  137.1247  156.8102 N.3     1  UNL1       -0.2887
     14 H         140.6127  137.2407  157.3683 H       1  UNL1        0.1239
     15 C         143.2409  138.4317  161.1678 C.ar    1  UNL1        0.0947
     16 C         143.6933  139.4951  160.2115 C.ar    1  UNL1        0.1187
     17 N         143.4890  138.9817  158.8170 N.ar    1  UNL1       -0.2282
     18 C         142.9104  137.6010  158.9115 C.ar    1  UNL1        0.1318
     19 N         142.7570  137.2611  160.3644 N.ar    1  UNL1       -0.3385
     20 H         142.4013  136.4178  160.7270 H       1  UNL1        0.1672
     21 F         143.3481  138.7966  167.1558 F       1  UNL1       -0.2025
     22 C         143.3213  138.7054  165.6588 C.ar    1  UNL1        0.1592
     23 C         144.4433  139.2881  164.8517 C.ar    1  UNL1        0.0328
     24 C         144.4165  139.1969  163.3548 C.ar    1  UNL1        0.0230
     25 C         143.2677  138.5229  162.6649 C.ar    1  UNL1        0.0986
     26 N         142.1457  137.9402  163.4720 N.ar    1  UNL1       -0.2400
     27 C         142.1725  138.0314  164.9689 C.ar    1  UNL1        0.1284
     28 C         140.0067  136.6484  154.7090 C.3     1  UNL1        0.0202
     29 C         140.2142  136.5283  153.2284 C.3     1  UNL1        0.0017
     30 C         139.1240  136.9374  152.2827 C.3     1  UNL1        0.0001
     31 C         137.8264  137.4665  152.8177 C.3     1  UNL1        0.0000
     32 C         137.6189  137.5866  154.2984 C.3     1  UNL1        0.0001
     33 C         138.7090  137.1775  155.2440 C.3     1  UNL1        0.0017
@<TRIPOS>BOND
     1    21    22    1
     2    22    23   ar
     3    23    24   ar
     4    24    25   ar
     5    25    15    1
     6    15    16   ar
     7    16    17   ar
     8    17    18   ar
     9     1    18    1
    10     1     2    1
    11     2     3    1
    12     3     4    2
    13     4     5    1
    14     5     6    2
    15     6     7    1
    16     7     8    1
    17     8     9    2
    18     9    10    1
    19    10    11    2
    20     4    12    1
    21    12    28    1
    22    28    29    1
    23    29    30    1
    24    30    31    1
    25    31    32    1
    26    32    33    1
    27    12    13    1
    28    18    19   ar
    29    25    26   ar
    30    26    27   ar
    31    27    22   ar
    32    19    15   ar
    33    13     1    1
    34    11     3    1
    35    33    28    1
    36    11     6    1
    37    13    14    1
    38    19    20    1
@<TRIPOS>MOLECULE
*****
 33 38 0 0 0
SMALL
GASTEIGER

@<TRIPOS>ATOM
      1 C         139.6125  140.7753  160.5832 C.3     1  UNL1        0.1161
      2 C         140.6659  141.8093  160.8503 C.3     1  UNL1        0.0510
      3 C         141.1795  142.0139  162.2446 C.2     1  UNL1       -0.0044
      4 C         140.6398  141.1845  163.3719 C.2     1  UNL1        0.0689
      5 N         141.3335  141.6083  164.6325 N.2     1  UNL1       -0.2526
      6 C         142.3019  142.6997  164.2844 C.2     1  UNL1        0.0627
      7 C         143.2580  143.4975  165.1205 C.3     1  UNL1        0.0717
      8 C         144.1190  144.5461  164.4808 C.2     1  UNL1       -0.0198
      9 C         144.0238  144.7967  163.0050 C.2     1  UNL1       -0.0042
     10 C         143.0677  143.9989  162.1689 C.2     1  UNL1        0.0006
     11 C         142.2067  142.9503  162.8085 C.2     1  UNL1        0.0111
     12 C         139.5865  140.1505  163.1048 C.3     1  UNL1        0.0947
     13 N         139.0728  139.9459  161.7105 N.3     1  UNL1       -0.2887
     14 H         138.0664  140.1091  161.7405 H       1  UNL1        0.1239
     15 C         137.6674  140.5980  157.2290 C.ar    1  UNL1        0.0947
     16 C         138.9494  139.9139  156.8571 C.ar    1  UNL1        0.1187
     17 N         139.8341  139.8970  158.0683 N.ar    1  UNL1       -0.2282
     18 C         139.0989  140.5707  159.1887 C.ar    1  UNL1        0.1318
     19 N         137.7598  141.0040  158.6701 N.ar    1  UNL1       -0.3385
     20 H         137.0637  141.4725  159.1851 H       1  UNL1        0.1672
     21 F         132.9909  141.5447  153.5911 F       1  UNL1       -0.2025
     22 C         134.1600  141.3081  154.5006 C.ar    1  UNL1        0.1592
     23 C         135.4911  141.9243  154.1868 C.ar    1  UNL1        0.0328
     24 C         136.6602  141.6877  155.0963 C.ar    1  UNL1        0.0230
     25 C         136.4982  140.8347  156.3195 C.ar    1  UNL1        0.0986
     26 N         135.1672  140.2184  156.6333 N.ar    1  UNL1       -0.2400
     27 C         133.9981  140.4551  155.7238 C.ar    1  UNL1        0.1284
     28 C         139.0468  139.3211  164.2321 C.3     1  UNL1        0.0202
     29 C         139.1673  137.8266  164.1882 C.3     1  UNL1        0.0017
     30 C         138.6275  136.9972  165.3156 C.3     1  UNL1        0.0001
     31 C         137.9673  137.6623  166.4868 C.3     1  UNL1        0.0000
     32 C         137.8469  139.1569  166.5307 C.3     1  UNL1        0.0001
     33 C         138.3866  139.9862  165.4034 C.3     1  UNL1        0.0017
@<TRIPOS>BOND
     1    21    22    1
     2    22    23   ar
     3    23    24   ar
     4    24    25   ar
     5    25    15    1
     6    15    16   ar
     7    16    17   ar
     8    17    18   ar
     9     1    18    1
    10     1     2    1
    11     2     3    1
    12     3     4    2
    13     4     5    1
    14     5     6    2
    15     6     7    1
    16     7     8    1
    17     8     9    2
    18     9    10    1
    19    10    11    2
    20     4    12    1
    21    12    28    1
    22    28    29    1
    23    29    30    1
    24    30    31    1
    25    31    32    1
    26    32    33    1
    27    12    13    1
    28    18    19   ar
    29    25    26   ar
    30    26    27   ar
    31    27    22   ar
    32    19    15   ar
    33    13     1    1
    34    11     3    1
    35    33    28    1
    36    11     6    1
    37    13    14    1
    38    19    20    1
@<TRIPOS>MOLECULE
*****
 33 38 0 0 0
SMALL
GASTEIGER

@<TRIPOS>ATOM
      1 C         141.9423  139.5086  161.2021 C.3     1  UNL1        0.1161
      2 C         140.9720  138.7521  162.0602 C.3     1  UNL1        0.0510
      3 C         140.6186  139.2657  163.4245 C.2     1  UNL1       -0.0044
      4 C         141.2354  140.5359  163.9307 C.2     1  UNL1        0.0689
      5 N         140.6992  140.7950  165.3074 N.2     1  UNL1       -0.2526
      6 C         139.7509  139.6849  165.6520 C.2     1  UNL1        0.0627
      7 C         138.9265  139.4127  166.8751 C.3     1  UNL1        0.0717
      8 C         138.0522  138.1953  166.9345 C.2     1  UNL1       -0.0198
      9 C         138.0024  137.2502  165.7708 C.2     1  UNL1       -0.0042
     10 C         138.8269  137.5224  164.5477 C.2     1  UNL1        0.0006
     11 C         139.7012  138.7398  164.4883 C.2     1  UNL1        0.0111
     12 C         142.2056  141.2924  163.0726 C.3     1  UNL1        0.0947
     13 N         142.5591  140.7788  161.7083 N.3     1  UNL1       -0.2887
     14 H         143.5695  140.6397  161.6987 H       1  UNL1        0.1239
     15 C         142.7665  137.4999  157.9848 C.ar    1  UNL1        0.0947
     16 C         142.9126  138.9091  157.4921 C.ar    1  UNL1        0.1187
     17 N         142.6216  139.8331  158.6373 N.ar    1  UNL1       -0.2282
     18 C         142.2957  138.9950  159.8378 C.ar    1  UNL1        0.1318
     19 N         142.3853  137.5530  159.4346 N.ar    1  UNL1       -0.3385
     20 H         142.2224  136.7775  160.0189 H       1  UNL1        0.1672
     21 F         143.5668  132.5243  154.7285 F       1  UNL1       -0.2025
     22 C         143.3667  133.7682  155.5426 C.ar    1  UNL1        0.1592
     23 C         143.0512  135.0672  154.8622 C.ar    1  UNL1        0.0328
     24 C         142.8511  136.3111  155.6762 C.ar    1  UNL1        0.0230
     25 C         142.9666  136.2560  157.1708 C.ar    1  UNL1        0.0986
     26 N         143.2822  134.9570  157.8512 N.ar    1  UNL1       -0.2400
     27 C         143.4822  133.7131  157.0371 C.ar    1  UNL1        0.1284
     28 C         142.8224  142.5626  163.5788 C.3     1  UNL1        0.0202
     29 C         142.3988  143.8824  163.0057 C.3     1  UNL1        0.0017
     30 C         143.0156  145.1526  163.5120 C.3     1  UNL1        0.0001
     31 C         144.0561  145.1028  164.5912 C.3     1  UNL1        0.0000
     32 C         144.4798  143.7830  165.1643 C.3     1  UNL1        0.0001
     33 C         143.8630  142.5129  164.6581 C.3     1  UNL1        0.0017
@<TRIPOS>BOND
     1    21    22    1
     2    22    23   ar
     3    23    24   ar
     4    24    25   ar
     5    25    15    1
     6    15    16   ar
     7    16    17   ar
     8    17    18   ar
     9     1    18    1
    10     1     2    1
    11     2     3    1
    12     3     4    2
    13     4     5    1
    14     5     6    2
    15     6     7    1
    16     7     8    1
    17     8     9    2
    18     9    10    1
    19    10    11    2
    20     4    12    1
    21    12    28    1
    22    28    29    1
    23    29    30    1
    24    30    31    1
    25    31    32    1
    26    32    33    1
    27    12    13    1
    28    18    19   ar
    29    25    26   ar
    30    26    27   ar
    31    27    22   ar
    32    19    15   ar
    33    13     1    1
    34    11     3    1
    35    33    28    1
    36    11     6    1
    37    13    14    1
    38    19    20    1
@<TRIPOS>MOLECULE
*****
 33 38 0 0 0
SMALL
GASTEIGER

@<TRIPOS>ATOM
      1 C         139.3876  139.7329  157.6592 C.3     1  UNL1        0.1161
      2 C         139.0687  139.6463  159.1224 C.3     1  UNL1        0.0510
      3 C         138.7482  140.8913  159.8951 C.2     1  UNL1       -0.0044
      4 C         138.7466  142.2230  159.2048 C.2     1  UNL1        0.0689
      5 N         138.3950  143.2705  160.2192 N.2     1  UNL1       -0.2526
      6 C         138.1793  142.5863  161.5365 C.2     1  UNL1        0.0627
      7 C         137.8123  143.1122  162.8924 C.3     1  UNL1        0.0717
      8 C         137.6636  142.1677  164.0481 C.2     1  UNL1       -0.0198
      9 C         137.8819  140.6972  163.8479 C.2     1  UNL1       -0.0042
     10 C         138.2489  140.1713  162.4919 C.2     1  UNL1        0.0006
     11 C         138.3976  141.1158  161.3362 C.2     1  UNL1        0.0111
     12 C         139.0655  142.3096  157.7416 C.3     1  UNL1        0.0947
     13 N         139.3860  141.0646  156.9688 N.3     1  UNL1       -0.2887
     14 H         140.3184  141.1937  156.5760 H       1  UNL1        0.1239
     15 C         140.8130  136.4679  156.1188 C.ar    1  UNL1        0.0947
     16 C         139.5897  136.6759  155.2760 C.ar    1  UNL1        0.1187
     17 N         138.9069  137.9244  155.7505 N.ar    1  UNL1       -0.2282
     18 C         139.7081  138.4878  156.8865 C.ar    1  UNL1        0.1318
     19 N         140.8862  137.5877  157.1141 N.ar    1  UNL1       -0.3385
     20 H         141.5848  137.7103  157.7969 H       1  UNL1        0.1672
     21 F         144.7265  131.9495  155.5997 F       1  UNL1       -0.2025
     22 C         143.7481  133.0791  155.7294 C.ar    1  UNL1        0.1592
     23 C         142.6100  133.2006  154.7600 C.ar    1  UNL1        0.0328
     24 C         141.6317  134.3302  154.8898 C.ar    1  UNL1        0.0230
     25 C         141.7914  135.3382  155.9890 C.ar    1  UNL1        0.0986
     26 N         142.9295  135.2167  156.9585 N.ar    1  UNL1       -0.2400
     27 C         143.9079  134.0871  156.8287 C.ar    1  UNL1        0.1284
     28 C         139.0639  143.6413  157.0512 C.3     1  UNL1        0.0202
     29 C         140.0189  144.7129  157.4865 C.3     1  UNL1        0.0017
     30 C         140.0173  146.0446  156.7961 C.3     1  UNL1        0.0001
     31 C         139.0607  146.3046  155.6703 C.3     1  UNL1        0.0000
     32 C         138.1057  145.2329  155.2349 C.3     1  UNL1        0.0001
     33 C         138.1073  143.9013  155.9254 C.3     1  UNL1        0.0017
@<TRIPOS>BOND
     1    21    22    1
     2    22    23   ar
     3    23    24   ar
     4    24    25   ar
     5    25    15    1
     6    15    16   ar
     7    16    17   ar
     8    17    18   ar
     9     1    18    1
    10     1     2    1
    11     2     3    1
    12     3     4    2
    13     4     5    1
    14     5     6    2
    15     6     7    1
    16     7     8    1
    17     8     9    2
    18     9    10    1
    19    10    11    2
    20     4    12    1
    21    12    28    1
    22    28    29    1
    23    29    30    1
    24    30    31    1
    25    31    32    1
    26    32    33    1
    27    12    13    1
    28    18    19   ar
    29    25    26   ar
    30    26    27   ar
    31    27    22   ar
    32    19    15   ar
    33    13     1    1
    34    11     3    1
    35    33    28    1
    36    11     6    1
    37    13    14    1
    38    19    20    1
@<TRIPOS>MOLECULE
*****
 33 38 0 0 0
SMALL
GASTEIGER

@<TRIPOS>ATOM
      1 C         140.0725  136.8599  155.4126 C.3     1  UNL1        0.1161
      2 C         140.6269  135.5274  155.0038 C.3     1  UNL1        0.0510
      3 C         141.8555  134.9885  155.6747 C.2     1  UNL1       -0.0044
      4 C         142.5297  135.7821  156.7543 C.2     1  UNL1        0.0689
      5 N         143.7171  134.9997  157.2318 N.2     1  UNL1       -0.2526
      6 C         143.7767  133.7226  156.4473 C.2     1  UNL1        0.0627
      7 C         144.7300  132.5651  156.4850 C.3     1  UNL1        0.0717
      8 C         144.5328  131.4007  155.5602 C.2     1  UNL1       -0.0198
      9 C         143.3822  131.3938  154.5979 C.2     1  UNL1       -0.0042
     10 C         142.4289  132.5512  154.5602 C.2     1  UNL1        0.0006
     11 C         142.6262  133.7156  155.4849 C.2     1  UNL1        0.0111
     12 C         141.9753  137.1146  157.1631 C.3     1  UNL1        0.0947
     13 N         140.7467  137.6535  156.4922 N.3     1  UNL1       -0.2887
     14 H         141.0053  138.5503  156.0806 H       1  UNL1        0.1239
     15 C         136.7648  138.5852  154.3413 C.ar    1  UNL1        0.0947
     16 C         137.1416  137.8709  153.0774 C.ar    1  UNL1        0.1187
     17 N         138.4266  137.1376  153.3248 N.ar    1  UNL1       -0.2282
     18 C         138.8438  137.3988  154.7417 C.ar    1  UNL1        0.1318
     19 N         137.8168  138.2934  155.3700 N.ar    1  UNL1       -0.3385
     20 H         137.8308  138.6300  156.2950 H       1  UNL1        0.1672
     21 F         131.9028  142.0087  155.1423 F       1  UNL1       -0.2025
     22 C         133.1184  141.1528  154.9420 C.ar    1  UNL1        0.1592
     23 C         134.0133  141.3858  153.7611 C.ar    1  UNL1        0.0328
     24 C         135.2288  140.5299  153.5609 C.ar    1  UNL1        0.0230
     25 C         135.5493  139.4411  154.5416 C.ar    1  UNL1        0.0986
     26 N         134.6543  139.2082  155.7226 N.ar    1  UNL1       -0.2400
     27 C         133.4388  140.0641  155.9228 C.ar    1  UNL1        0.1284
     28 C         142.6496  137.9082  158.2427 C.3     1  UNL1        0.0202
     29 C         143.1154  139.3068  157.9657 C.3     1  UNL1        0.0017
     30 C         143.7897  140.1004  159.0454 C.3     1  UNL1        0.0001
     31 C         143.9980  139.4953  160.4020 C.3     1  UNL1        0.0000
     32 C         143.5321  138.0967  160.6790 C.3     1  UNL1        0.0001
     33 C         142.8579  137.3032  159.5994 C.3     1  UNL1        0.0017
@<TRIPOS>BOND
     1    21    22    1
     2    22    23   ar
     3    23    24   ar
     4    24    25   ar
     5    25    15    1
     6    15    16   ar
     7    16    17   ar
     8    17    18   ar
     9     1    18    1
    10     1     2    1
    11     2     3    1
    12     3     4    2
    13     4     5    1
    14     5     6    2
    15     6     7    1
    16     7     8    1
    17     8     9    2
    18     9    10    1
    19    10    11    2
    20     4    12    1
    21    12    28    1
    22    28    29    1
    23    29    30    1
    24    30    31    1
    25    31    32    1
    26    32    33    1
    27    12    13    1
    28    18    19   ar
    29    25    26   ar
    30    26    27   ar
    31    27    22   ar
    32    19    15   ar
    33    13     1    1
    34    11     3    1
    35    33    28    1
    36    11     6    1
    37    13    14    1
    38    19    20    1
@<TRIPOS>MOLECULE
*****
 33 38 0 0 0
SMALL
GASTEIGER

@<TRIPOS>ATOM
      1 C         141.2718  138.8458  158.4849 C.3     1  UNL1        0.1161
      2 C         142.3446  139.8871  158.3635 C.3     1  UNL1        0.0510
      3 C         143.4081  139.7496  157.3147 C.2     1  UNL1       -0.0044
      4 C         143.3988  138.5707  156.3873 C.2     1  UNL1        0.0689
      5 N         144.5689  138.7027  155.4582 N.2     1  UNL1       -0.2526
      6 C         145.3014  139.9632  155.8113 C.2     1  UNL1        0.0627
      7 C         146.5290  140.6053  155.2364 C.3     1  UNL1        0.0717
      8 C         147.0391  141.8945  155.8088 C.2     1  UNL1       -0.0198
      9 C         146.3217  142.5415  156.9562 C.2     1  UNL1       -0.0042
     10 C         145.0941  141.8994  157.5312 C.2     1  UNL1        0.0006
     11 C         144.5840  140.6102  156.9588 C.2     1  UNL1        0.0111
     12 C         142.3260  137.5294  156.5087 C.3     1  UNL1        0.0947
     13 N         141.2625  137.6669  157.5575 N.3     1  UNL1       -0.2887
     14 H         141.3153  136.8323  158.1415 H       1  UNL1        0.1239
     15 C         139.0792  139.0516  161.6811 C.ar    1  UNL1        0.0947
     16 C         138.0644  139.3385  160.6145 C.ar    1  UNL1        0.1187
     17 N         138.7621  139.2964  159.2874 N.ar    1  UNL1       -0.2282
     18 C         140.2082  138.9834  159.5338 C.ar    1  UNL1        0.1318
     19 N         140.4042  138.8321  161.0132 N.ar    1  UNL1       -0.3385
     20 H         141.2534  138.6250  161.4662 H       1  UNL1        0.1672
     21 F         138.0240  138.8219  167.5832 F       1  UNL1       -0.2025
     22 C         138.2878  138.8793  166.1076 C.ar    1  UNL1        0.1592
     23 C         138.7440  137.6501  165.3789 C.ar    1  UNL1        0.0328
     24 C         139.0078  137.7076  163.9034 C.ar    1  UNL1        0.0230
     25 C         138.8154  138.9942  163.1567 C.ar    1  UNL1        0.0986
     26 N         138.3592  140.2233  163.8853 N.ar    1  UNL1       -0.2400
     27 C         138.0954  140.1659  165.3608 C.ar    1  UNL1        0.1284
     28 C         142.3167  136.3505  155.5813 C.3     1  UNL1        0.0202
     29 C         142.6421  134.9827  156.1037 C.3     1  UNL1        0.0017
     30 C         142.6328  133.8037  155.1762 C.3     1  UNL1        0.0001
     31 C         142.2980  133.9928  153.7263 C.3     1  UNL1        0.0000
     32 C         141.9726  135.3607  153.2038 C.3     1  UNL1        0.0001
     33 C         141.9819  136.5395  154.1313 C.3     1  UNL1        0.0017
@<TRIPOS>BOND
     1    21    22    1
     2    22    23   ar
     3    23    24   ar
     4    24    25   ar
     5    25    15    1
     6    15    16   ar
     7    16    17   ar
     8    17    18   ar
     9     1    18    1
    10     1     2    1
    11     2     3    1
    12     3     4    2
    13     4     5    1
    14     5     6    2
    15     6     7    1
    16     7     8    1
    17     8     9    2
    18     9    10    1
    19    10    11    2
    20     4    12    1
    21    12    28    1
    22    28    29    1
    23    29    30    1
    24    30    31    1
    25    31    32    1
    26    32    33    1
    27    12    13    1
    28    18    19   ar
    29    25    26   ar
    30    26    27   ar
    31    27    22   ar
    32    19    15   ar
    33    13     1    1
    34    11     3    1
    35    33    28    1
    36    11     6    1
    37    13    14    1
    38    19    20    1
@<TRIPOS>MOLECULE
*****
 33 38 0 0 0
SMALL
GASTEIGER

@<TRIPOS>ATOM
      1 C         143.1364  139.2811  157.9514 C.3     1  UNL1        0.1161
      2 C         142.3601  140.4550  157.4323 C.3     1  UNL1        0.0510
      3 C         142.1912  141.6782  158.2838 C.2     1  UNL1       -0.0044
      4 C         142.7987  141.7276  159.6544 C.2     1  UNL1        0.0689
      5 N         142.4674  143.0591  160.2604 N.2     1  UNL1       -0.2526
      6 C         141.6552  143.8326  159.2644 C.2     1  UNL1        0.0627
      7 C         141.0490  145.2038  159.3120 C.3     1  UNL1        0.0717
      8 C         140.2721  145.7216  158.1380 C.2     1  UNL1       -0.0198
      9 C         140.1015  144.8681  156.9163 C.2     1  UNL1       -0.0042
     10 C         140.7077  143.4969  156.8687 C.2     1  UNL1        0.0006
     11 C         141.4845  142.9792  158.0427 C.2     1  UNL1        0.0111
     12 C         143.5750  140.5538  160.1735 C.3     1  UNL1        0.0947
     13 N         143.7439  139.3305  159.3220 N.3     1  UNL1       -0.2887
     14 H         143.3500  138.5497  159.8469 H       1  UNL1        0.1239
     15 C         143.1166  135.7915  156.2520 C.ar    1  UNL1        0.0947
     16 C         144.0136  136.5593  155.3269 C.ar    1  UNL1        0.1187
     17 N         144.1302  137.9600  155.8508 N.ar    1  UNL1       -0.2282
     18 C         143.3053  138.0578  157.0998 C.ar    1  UNL1        0.1318
     19 N         142.6789  136.7177  157.3477 N.ar    1  UNL1       -0.3385
     20 H         142.0847  136.4865  158.0979 H       1  UNL1        0.1672
     21 F         141.5540  130.0277  155.6716 F       1  UNL1       -0.2025
     22 C         141.9446  131.4687  155.8166 C.ar    1  UNL1        0.1592
     23 C         141.3164  132.5084  154.9367 C.ar    1  UNL1        0.0328
     24 C         141.7071  133.9493  155.0818 C.ar    1  UNL1        0.0230
     25 C         142.7260  134.3505  156.1069 C.ar    1  UNL1        0.0986
     26 N         143.3542  133.3109  156.9869 N.ar    1  UNL1       -0.2400
     27 C         142.9635  131.8700  156.8418 C.ar    1  UNL1        0.1284
     28 C         144.1824  140.6032  161.5441 C.3     1  UNL1        0.0202
     29 C         143.9484  139.4790  162.5091 C.3     1  UNL1        0.0017
     30 C         144.5558  139.5285  163.8798 C.3     1  UNL1        0.0001
     31 C         145.3973  140.7021  164.2853 C.3     1  UNL1        0.0000
     32 C         145.6314  141.8263  163.3202 C.3     1  UNL1        0.0001
     33 C         145.0240  141.7769  161.9497 C.3     1  UNL1        0.0017
@<TRIPOS>BOND
     1    21    22    1
     2    22    23   ar
     3    23    24   ar
     4    24    25   ar
     5    25    15    1
     6    15    16   ar
     7    16    17   ar
     8    17    18   ar
     9     1    18    1
    10     1     2    1
    11     2     3    1
    12     3     4    2
    13     4     5    1
    14     5     6    2
    15     6     7    1
    16     7     8    1
    17     8     9    2
    18     9    10    1
    19    10    11    2
    20     4    12    1
    21    12    28    1
    22    28    29    1
    23    29    30    1
    24    30    31    1
    25    31    32    1
    26    32    33    1
    27    12    13    1
    28    18    19   ar
    29    25    26   ar
    30    26    27   ar
    31    27    22   ar
    32    19    15   ar
    33    13     1    1
    34    11     3    1
    35    33    28    1
    36    11     6    1
    37    13    14    1
    38    19    20    1
@<TRIPOS>MOLECULE
*****
 33 38 0 0 0
SMALL
GASTEIGER

@<TRIPOS>ATOM
      1 C         139.9495  143.7248  158.4004 C.3     1  UNL1        0.1161
      2 C         140.6449  142.4094  158.2104 C.3     1  UNL1        0.0510
      3 C         140.9286  141.5331  159.3943 C.2     1  UNL1       -0.0044
      4 C         140.5169  141.9723  160.7682 C.2     1  UNL1        0.0689
      5 N         140.9273  140.9046  161.7385 N.2     1  UNL1       -0.2526
      6 C         141.5927  139.8055  160.9643 C.2     1  UNL1        0.0627
      7 C         142.1979  138.5012  161.3914 C.3     1  UNL1        0.0717
      8 C         142.8039  137.5854  160.3697 C.2     1  UNL1       -0.0198
      9 C         142.8048  137.9739  158.9209 C.2     1  UNL1       -0.0042
     10 C         142.1995  139.2782  158.4938 C.2     1  UNL1        0.0006
     11 C         141.5935  140.1940  159.5155 C.2     1  UNL1        0.0111
     12 C         139.8214  143.2877  160.9582 C.3     1  UNL1        0.0947
     13 N         139.5378  144.1640  159.7743 N.3     1  UNL1       -0.2887
     14 H         140.0015  145.0553  159.9499 H       1  UNL1        0.1239
     15 C         139.3819  146.5568  155.8075 C.ar    1  UNL1        0.0947
     16 C         139.0766  145.3423  154.9817 C.ar    1  UNL1        0.1187
     17 N         139.2520  144.1336  155.8525 N.ar    1  UNL1       -0.2282
     18 C         139.6658  144.6011  157.2164 C.ar    1  UNL1        0.1318
     19 N         139.7461  146.0987  157.1886 N.ar    1  UNL1       -0.3385
     20 H         139.9942  146.6790  157.9442 H       1  UNL1        0.1672
     21 F         139.1819  152.2479  153.9176 F       1  UNL1       -0.2025
     22 C         139.2319  150.8251  154.3901 C.ar    1  UNL1        0.1592
     23 C         139.9414  149.7875  153.5715 C.ar    1  UNL1        0.0328
     24 C         139.9914  148.3648  154.0440 C.ar    1  UNL1        0.0230
     25 C         139.3319  147.9796  155.3350 C.ar    1  UNL1        0.0986
     26 N         138.6224  149.0171  156.1535 N.ar    1  UNL1       -0.2400
     27 C         138.5724  150.4399  155.6811 C.ar    1  UNL1        0.1284
     28 C         139.4097  143.7269  162.3321 C.3     1  UNL1        0.0202
     29 C         140.4305  144.2864  163.2780 C.3     1  UNL1        0.0017
     30 C         140.0187  144.7255  164.6520 C.3     1  UNL1        0.0001
     31 C         138.5861  144.6052  165.0799 C.3     1  UNL1        0.0000
     32 C         137.5652  144.0457  164.1339 C.3     1  UNL1        0.0001
     33 C         137.9770  143.6065  162.7601 C.3     1  UNL1        0.0017
@<TRIPOS>BOND
     1    21    22    1
     2    22    23   ar
     3    23    24   ar
     4    24    25   ar
     5    25    15    1
     6    15    16   ar
     7    16    17   ar
     8    17    18   ar
     9     1    18    1
    10     1     2    1
    11     2     3    1
    12     3     4    2
    13     4     5    1
    14     5     6    2
    15     6     7    1
    16     7     8    1
    17     8     9    2
    18     9    10    1
    19    10    11    2
    20     4    12    1
    21    12    28    1
    22    28    29    1
    23    29    30    1
    24    30    31    1
    25    31    32    1
    26    32    33    1
    27    12    13    1
    28    18    19   ar
    29    25    26   ar
    30    26    27   ar
    31    27    22   ar
    32    19    15   ar
    33    13     1    1
    34    11     3    1
    35    33    28    1
    36    11     6    1
    37    13    14    1
    38    19    20    1
@<TRIPOS>MOLECULE
*****
 33 38 0 0 0
SMALL
GASTEIGER

@<TRIPOS>ATOM
      1 C         143.3075  140.0401  158.0512 C.3     1  UNL1        0.1161
      2 C         143.8841  140.0989  159.4347 C.3     1  UNL1        0.0510
      3 C         143.7216  141.3390  160.2628 C.2     1  UNL1       -0.0044
      4 C         142.9826  142.5202  159.7074 C.2     1  UNL1        0.0689
      5 N         142.9816  143.5984  160.7502 N.2     1  UNL1       -0.2526
      6 C         143.7200  143.0836  161.9501 C.2     1  UNL1        0.0627
      7 C         144.0349  143.7059  163.2780 C.3     1  UNL1        0.0717
      8 C         144.8072  142.9318  164.3047 C.2     1  UNL1       -0.0198
      9 C         145.2646  141.5353  164.0035 C.2     1  UNL1       -0.0042
     10 C         144.9496  140.9130  162.6756 C.2     1  UNL1        0.0006
     11 C         144.1773  141.6871  161.6489 C.2     1  UNL1        0.0111
     12 C         142.4061  142.4614  158.3238 C.3     1  UNL1        0.0947
     13 N         142.5685  141.2213  157.4957 N.3     1  UNL1       -0.2887
     14 H         143.0547  141.4984  156.6429 H       1  UNL1        0.1239
     15 C         143.3481  136.4970  156.4668 C.ar    1  UNL1        0.0947
     16 C         144.0920  137.2863  155.4307 C.ar    1  UNL1        0.1187
     17 N         144.1674  138.7096  155.8981 N.ar    1  UNL1       -0.2282
     18 C         143.4701  138.7999  157.2230 C.ar    1  UNL1        0.1318
     19 N         142.9637  137.4325  157.5746 N.ar    1  UNL1       -0.3385
     20 H         142.4664  137.1913  158.3893 H       1  UNL1        0.1672
     21 F         142.1248  130.6280  156.2233 F       1  UNL1       -0.2025
     22 C         142.4306  132.0953  156.2841 C.ar    1  UNL1        0.1592
     23 C         141.6042  133.0670  155.4950 C.ar    1  UNL1        0.0328
     24 C         141.9101  134.5342  155.5559 C.ar    1  UNL1        0.0230
     25 C         143.0423  135.0297  156.4060 C.ar    1  UNL1        0.0986
     26 N         143.8687  134.0579  157.1951 N.ar    1  UNL1       -0.2400
     27 C         143.5628  132.5907  157.1342 C.ar    1  UNL1        0.1284
     28 C         141.6671  143.6427  157.7684 C.3     1  UNL1        0.0202
     29 C         142.3778  144.9495  157.5767 C.3     1  UNL1        0.0017
     30 C         141.6387  146.1308  157.0212 C.3     1  UNL1        0.0001
     31 C         140.1890  146.0051  156.6575 C.3     1  UNL1        0.0000
     32 C         139.4782  144.6982  156.8493 C.3     1  UNL1        0.0001
     33 C         140.2172  143.5170  157.4047 C.3     1  UNL1        0.0017
@<TRIPOS>BOND
     1    21    22    1
     2    22    23   ar
     3    23    24   ar
     4    24    25   ar
     5    25    15    1
     6    15    16   ar
     7    16    17   ar
     8    17    18   ar
     9     1    18    1
    10     1     2    1
    11     2     3    1
    12     3     4    2
    13     4     5    1
    14     5     6    2
    15     6     7    1
    16     7     8    1
    17     8     9    2
    18     9    10    1
    19    10    11    2
    20     4    12    1
    21    12    28    1
    22    28    29    1
    23    29    30    1
    24    30    31    1
    25    31    32    1
    26    32    33    1
    27    12    13    1
    28    18    19   ar
    29    25    26   ar
    30    26    27   ar
    31    27    22   ar
    32    19    15   ar
    33    13     1    1
    34    11     3    1
    35    33    28    1
    36    11     6    1
    37    13    14    1
    38    19    20    1
