@<TRIPOS>MOLECULE
*****
 34 39 0 0 0
SMALL
GASTEIGER

@<TRIPOS>ATOM
      1 N         141.4394  138.3714  158.7896 N.ar    1  UNL1       -0.2340
      2 N         141.5214  138.1728  160.2741 N.ar    1  UNL1       -0.1679
      3 C         140.2827  138.7541  160.8886 C.ar    1  UNL1        0.1065
      4 C         139.4352  139.3121  159.7839 C.ar    1  UNL1        0.0860
      5 C         138.1048  140.0049  159.7917 C.ar    1  UNL1        0.1316
      6 N         137.3900  140.2414  161.0890 N.pl3   1  UNL1       -0.3425
      7 N         137.4893  140.4613  158.5021 N.ar    1  UNL1       -0.2093
      8 C         138.2042  140.2249  157.2048 C.ar    1  UNL1        0.2014
      9 N         139.5346  139.5319  157.1971 N.ar    1  UNL1       -0.2050
     10 C         140.1500  139.0756  158.4866 C.ar    1  UNL1        0.1653
     11 H         137.7939  139.9419  161.9353 H       1  UNL1        0.1437
     12 H         136.5168  140.6962  161.0941 H       1  UNL1        0.1437
     13 C         139.9499  138.7740  162.3512 C.ar    1  UNL1        0.0196
     14 C         139.1251  137.6723  162.9477 C.ar    1  UNL1        0.0031
     15 C         138.7924  137.6922  164.4102 C.ar    1  UNL1        0.0193
     16 C         139.2844  138.8139  165.2761 C.ar    1  UNL1        0.0844
     17 N         138.9516  138.8338  166.7386 N.ar    1  UNL1       -0.2117
     18 C         139.4436  139.9555  167.6045 C.ar    1  UNL1        0.2247
     19 C         140.2685  141.0572  167.0079 C.ar    1  UNL1        0.0577
     20 C         140.6012  141.0373  165.5454 C.ar    1  UNL1        0.0063
     21 C         140.1092  139.9156  164.6795 C.ar    1  UNL1        0.0180
     22 C         140.4419  139.8957  163.2171 C.ar    1  UNL1        0.0031
     23 O         139.1109  139.9754  169.0670 O.3     1  UNL1       -0.4640
     24 C         139.7058  141.0259  169.9573 C.3     1  UNL1        0.1678
     25 C         139.7655  142.4494  170.4265 C.3     1  UNL1        0.0473
     26 C         140.6765  141.4219  171.0301 C.3     1  UNL1        0.0473
     27 C         142.4665  137.9415  157.7844 C.3     1  UNL1        0.1291
     28 C         141.6957  132.8560  154.6951 C.3     1  UNL1        0.0896
     29 N         141.8884  134.1274  155.4675 N.3     1  UNL1       -0.2715
     30 C         141.0307  135.3220  155.1718 C.3     1  UNL1        0.0722
     31 C         141.2234  136.5933  155.9441 C.3     1  UNL1        0.0194
     32 C         142.2738  136.6701  157.0121 C.3     1  UNL1        0.0272
     33 C         143.1315  135.4756  157.3078 C.3     1  UNL1        0.0194
     34 C         142.9388  134.2042  156.5355 C.3     1  UNL1        0.0722
@<TRIPOS>BOND
     1    28    29    1
     2    29    30    1
     3    30    31    1
     4    31    32    1
     5    32    27    1
     6    27     1    1
     7     1     2   ar
     8     2     3   ar
     9     3    13    1
    10    13    14   ar
    11    14    15   ar
    12    15    16   ar
    13    16    17   ar
    14    17    18   ar
    15    18    23    1
    16    23    24    1
    17    24    25    1
    18    25    26    1
    19    18    19   ar
    20    19    20   ar
    21    20    21   ar
    22    21    22   ar
    23     3     4   ar
    24     4     5   ar
    25     5     6    1
    26     5     7   ar
    27     7     8   ar
    28     8     9   ar
    29     9    10   ar
    30    32    33    1
    31    33    34    1
    32    34    29    1
    33    10     1   ar
    34    22    13   ar
    35    10     4   ar
    36    21    16   ar
    37    26    24    1
    38     6    11    1
    39     6    12    1
@<TRIPOS>MOLECULE
*****
 34 39 0 0 0
SMALL
GASTEIGER

@<TRIPOS>ATOM
      1 N         141.9315  137.8436  158.0814 N.ar    1  UNL1       -0.2340
      2 N         142.0347  137.9376  159.5748 N.ar    1  UNL1       -0.1679
      3 C         140.8550  138.7189  160.0727 C.ar    1  UNL1        0.1065
      4 C         140.0227  139.1078  158.8868 C.ar    1  UNL1        0.0860
      5 C         138.7450  139.8846  158.7687 C.ar    1  UNL1        0.1316
      6 N         138.0797  140.4256  159.9994 N.pl3   1  UNL1       -0.3425
      7 N         138.1326  140.1204  157.4199 N.ar    1  UNL1       -0.2093
      8 C         138.7979  139.5795  156.1892 C.ar    1  UNL1        0.2014
      9 N         140.0757  138.8026  156.3074 N.ar    1  UNL1       -0.2050
     10 C         140.6880  138.5668  157.6561 C.ar    1  UNL1        0.1653
     11 H         138.4816  140.2708  160.8847 H       1  UNL1        0.1437
     12 H         137.2411  140.9354  159.9219 H       1  UNL1        0.1437
     13 C         140.5594  139.0528  161.5049 C.ar    1  UNL1        0.0196
     14 C         141.0621  140.3370  162.0948 C.ar    1  UNL1        0.0031
     15 C         140.7665  140.6708  163.5270 C.ar    1  UNL1        0.0193
     16 C         139.9681  139.7204  164.3692 C.ar    1  UNL1        0.0844
     17 N         139.6725  140.0543  165.8015 N.ar    1  UNL1       -0.2117
     18 C         138.8742  139.1039  166.6437 C.ar    1  UNL1        0.2247
     19 C         138.3714  137.8197  166.0537 C.ar    1  UNL1        0.0577
     20 C         138.6670  137.4858  164.6216 C.ar    1  UNL1        0.0063
     21 C         139.4654  138.4362  163.7793 C.ar    1  UNL1        0.0180
     22 C         139.7610  138.1024  162.3472 C.ar    1  UNL1        0.0031
     23 O         138.5785  139.4377  168.0759 O.3     1  UNL1       -0.4640
     24 C         139.5916  140.1779  168.8980 C.3     1  UNL1        0.1678
     25 C         140.1200  141.4652  169.4581 C.3     1  UNL1        0.0473
     26 C         140.8179  140.1727  169.7618 C.3     1  UNL1        0.0473
     27 C         142.9015  137.1484  157.1726 C.3     1  UNL1        0.1291
     28 C         141.8712  131.4956  155.4452 C.3     1  UNL1        0.0896
     29 N         142.1288  132.9088  155.8771 N.3     1  UNL1       -0.2715
     30 C         141.3922  134.0394  155.2218 C.3     1  UNL1        0.0722
     31 C         141.6498  135.4526  155.6537 C.3     1  UNL1        0.0194
     32 C         142.6440  135.7352  156.7408 C.3     1  UNL1        0.0272
     33 C         143.3806  134.6047  157.3960 C.3     1  UNL1        0.0194
     34 C         143.1230  133.1915  156.9641 C.3     1  UNL1        0.0722
@<TRIPOS>BOND
     1    28    29    1
     2    29    30    1
     3    30    31    1
     4    31    32    1
     5    32    27    1
     6    27     1    1
     7     1     2   ar
     8     2     3   ar
     9     3    13    1
    10    13    14   ar
    11    14    15   ar
    12    15    16   ar
    13    16    17   ar
    14    17    18   ar
    15    18    23    1
    16    23    24    1
    17    24    25    1
    18    25    26    1
    19    18    19   ar
    20    19    20   ar
    21    20    21   ar
    22    21    22   ar
    23     3     4   ar
    24     4     5   ar
    25     5     6    1
    26     5     7   ar
    27     7     8   ar
    28     8     9   ar
    29     9    10   ar
    30    32    33    1
    31    33    34    1
    32    34    29    1
    33    10     1   ar
    34    22    13   ar
    35    10     4   ar
    36    21    16   ar
    37    26    24    1
    38     6    11    1
    39     6    12    1
@<TRIPOS>MOLECULE
*****
 34 39 0 0 0
SMALL
GASTEIGER

@<TRIPOS>ATOM
      1 N         142.3495  137.5234  157.9678 N.ar    1  UNL1       -0.2340
      2 N         142.8360  137.5734  159.3858 N.ar    1  UNL1       -0.1679
      3 C         141.8364  138.3486  160.1918 C.ar    1  UNL1        0.1065
      4 C         140.7320  138.7778  159.2719 C.ar    1  UNL1        0.0860
      5 C         139.4786  139.5671  159.5083 C.ar    1  UNL1        0.1316
      6 N         139.1615  140.0771  160.8829 N.pl3   1  UNL1       -0.3425
      7 N         138.5422  139.8464  158.3702 N.ar    1  UNL1       -0.2093
      8 C         138.8593  139.3365  156.9957 C.ar    1  UNL1        0.2014
      9 N         140.1128  138.5471  156.7593 N.ar    1  UNL1       -0.2050
     10 C         141.0490  138.2678  157.8974 C.ar    1  UNL1        0.1653
     11 H         139.7760  139.8938  161.6298 H       1  UNL1        0.1437
     12 H         138.3388  140.5952  161.0381 H       1  UNL1        0.1437
     13 C         141.9254  138.6430  161.6600 C.ar    1  UNL1        0.0196
     14 C         141.3900  137.6579  162.6563 C.ar    1  UNL1        0.0031
     15 C         141.4791  137.9523  164.1244 C.ar    1  UNL1        0.0193
     16 C         142.1036  139.2319  164.5962 C.ar    1  UNL1        0.0844
     17 N         142.1926  139.5264  166.0643 N.ar    1  UNL1       -0.2117
     18 C         142.8171  140.8060  166.5361 C.ar    1  UNL1        0.2247
     19 C         143.3525  141.7912  165.5397 C.ar    1  UNL1        0.0577
     20 C         143.2635  141.4967  164.0716 C.ar    1  UNL1        0.0063
     21 C         142.6390  140.2171  163.5998 C.ar    1  UNL1        0.0180
     22 C         142.5499  139.9227  162.1318 C.ar    1  UNL1        0.0031
     23 O         142.9062  141.1004  168.0042 O.3     1  UNL1       -0.4640
     24 C         142.2781  140.1665  168.9959 C.3     1  UNL1        0.1678
     25 C         142.3868  138.9953  169.9267 C.3     1  UNL1        0.0473
     26 C         141.0816  139.7203  169.7828 C.3     1  UNL1        0.0473
     27 C         143.0417  136.8477  156.8214 C.3     1  UNL1        0.1291
     28 C         141.9228  131.0762  155.6221 C.3     1  UNL1        0.0896
     29 N         142.2026  132.5192  155.9219 N.3     1  UNL1       -0.2715
     30 C         141.4662  133.5956  155.1809 C.3     1  UNL1        0.0722
     31 C         141.7459  135.0385  155.4808 C.3     1  UNL1        0.0194
     32 C         142.7620  135.4048  156.5216 C.3     1  UNL1        0.0272
     33 C         143.4984  134.3284  157.2626 C.3     1  UNL1        0.0194
     34 C         143.2186  132.8856  156.9628 C.3     1  UNL1        0.0722
@<TRIPOS>BOND
     1    28    29    1
     2    29    30    1
     3    30    31    1
     4    31    32    1
     5    32    27    1
     6    27     1    1
     7     1     2   ar
     8     2     3   ar
     9     3    13    1
    10    13    14   ar
    11    14    15   ar
    12    15    16   ar
    13    16    17   ar
    14    17    18   ar
    15    18    23    1
    16    23    24    1
    17    24    25    1
    18    25    26    1
    19    18    19   ar
    20    19    20   ar
    21    20    21   ar
    22    21    22   ar
    23     3     4   ar
    24     4     5   ar
    25     5     6    1
    26     5     7   ar
    27     7     8   ar
    28     8     9   ar
    29     9    10   ar
    30    32    33    1
    31    33    34    1
    32    34    29    1
    33    10     1   ar
    34    22    13   ar
    35    10     4   ar
    36    21    16   ar
    37    26    24    1
    38     6    11    1
    39     6    12    1
@<TRIPOS>MOLECULE
*****
 34 39 0 0 0
SMALL
GASTEIGER

@<TRIPOS>ATOM
      1 N         138.4729  142.9390  158.4673 N.ar    1  UNL1       -0.2340
      2 N         138.3045  142.6206  159.9234 N.ar    1  UNL1       -0.1679
      3 C         139.3750  143.3462  160.6834 C.ar    1  UNL1        0.1065
      4 C         140.2050  144.1131  159.6969 C.ar    1  UNL1        0.0860
      5 C         141.3964  145.0080  159.8688 C.ar    1  UNL1        0.1316
      6 N         141.9539  145.2597  161.2384 N.pl3   1  UNL1       -0.3425
      7 N         142.0304  145.6513  158.6712 N.ar    1  UNL1       -0.2093
      8 C         141.4729  145.3996  157.3016 C.ar    1  UNL1        0.2014
      9 N         140.2814  144.5046  157.1297 N.ar    1  UNL1       -0.2050
     10 C         139.6475  143.8614  158.3273 C.ar    1  UNL1        0.1653
     11 H         141.5379  144.8375  162.0245 H       1  UNL1        0.1437
     12 H         142.7359  145.8471  161.3513 H       1  UNL1        0.1437
     13 C         139.5796  143.3112  162.1690 C.ar    1  UNL1        0.0196
     14 C         138.8733  144.3014  163.0469 C.ar    1  UNL1        0.0031
     15 C         139.0780  144.2663  164.5324 C.ar    1  UNL1        0.0193
     16 C         139.9889  143.2411  165.1400 C.ar    1  UNL1        0.0844
     17 N         140.1935  143.2061  166.6257 N.ar    1  UNL1       -0.2117
     18 C         141.1044  142.1809  167.2333 C.ar    1  UNL1        0.2247
     19 C         141.8107  141.1907  166.3553 C.ar    1  UNL1        0.0577
     20 C         141.6061  141.2258  164.8698 C.ar    1  UNL1        0.0063
     21 C         140.6952  142.2510  164.2621 C.ar    1  UNL1        0.0180
     22 C         140.4905  142.2860  162.7766 C.ar    1  UNL1        0.0031
     23 O         141.3090  142.1458  168.7188 O.3     1  UNL1       -0.4640
     24 C         141.3168  140.8327  169.4441 C.3     1  UNL1        0.1678
     25 C         142.0115  139.5545  169.8092 C.3     1  UNL1        0.0473
     26 C         140.6354  139.8369  170.3351 C.3     1  UNL1        0.0473
     27 C         137.6170  142.4252  157.3477 C.3     1  UNL1        0.1291
     28 C         138.8607  137.1346  154.8056 C.3     1  UNL1        0.0896
     29 N         138.5498  138.4573  155.4411 N.3     1  UNL1       -0.2715
     30 C         139.3247  138.9130  156.6419 C.3     1  UNL1        0.0722
     31 C         139.0138  140.2357  157.2774 C.3     1  UNL1        0.0194
     32 C         137.9279  141.1025  156.7122 C.3     1  UNL1        0.0272
     33 C         137.1530  140.6468  155.5114 C.3     1  UNL1        0.0194
     34 C         137.4639  139.3241  154.8759 C.3     1  UNL1        0.0722
@<TRIPOS>BOND
     1    28    29    1
     2    29    30    1
     3    30    31    1
     4    31    32    1
     5    32    27    1
     6    27     1    1
     7     1     2   ar
     8     2     3   ar
     9     3    13    1
    10    13    14   ar
    11    14    15   ar
    12    15    16   ar
    13    16    17   ar
    14    17    18   ar
    15    18    23    1
    16    23    24    1
    17    24    25    1
    18    25    26    1
    19    18    19   ar
    20    19    20   ar
    21    20    21   ar
    22    21    22   ar
    23     3     4   ar
    24     4     5   ar
    25     5     6    1
    26     5     7   ar
    27     7     8   ar
    28     8     9   ar
    29     9    10   ar
    30    32    33    1
    31    33    34    1
    32    34    29    1
    33    10     1   ar
    34    22    13   ar
    35    10     4   ar
    36    21    16   ar
    37    26    24    1
    38     6    11    1
    39     6    12    1
@<TRIPOS>MOLECULE
*****
 34 39 0 0 0
SMALL
GASTEIGER

@<TRIPOS>ATOM
      1 N         143.7348  141.6111  158.2747 N.ar    1  UNL1       -0.2340
      2 N         143.9582  141.2360  159.7097 N.ar    1  UNL1       -0.1679
      3 C         143.3956  142.3302  160.5678 C.ar    1  UNL1        0.1065
      4 C         142.8245  143.3815  159.6630 C.ar    1  UNL1        0.0860
      5 C         142.1406  144.6861  159.9466 C.ar    1  UNL1        0.1316
      6 N         141.9310  145.1305  161.3638 N.pl3   1  UNL1       -0.3425
      7 N         141.6664  145.5463  158.8129 N.ar    1  UNL1       -0.2093
      8 C         141.8760  145.1019  157.3957 C.ar    1  UNL1        0.2014
      9 N         142.5599  143.7972  157.1122 N.ar    1  UNL1       -0.2050
     10 C         143.0341  142.9371  158.2458 C.ar    1  UNL1        0.1653
     11 H         142.2423  144.5659  162.1079 H       1  UNL1        0.1437
     12 H         141.4822  145.9867  161.5499 H       1  UNL1        0.1437
     13 C         143.4028  142.3667  162.0674 C.ar    1  UNL1        0.0196
     14 C         144.6432  142.7820  162.8015 C.ar    1  UNL1        0.0031
     15 C         144.6503  142.8185  164.3010 C.ar    1  UNL1        0.0193
     16 C         143.4172  142.4396  165.0664 C.ar    1  UNL1        0.0844
     17 N         143.4244  142.4761  166.5660 N.ar    1  UNL1       -0.2117
     18 C         142.1913  142.0973  167.3313 C.ar    1  UNL1        0.2247
     19 C         140.9509  141.6819  166.5971 C.ar    1  UNL1        0.0577
     20 C         140.9437  141.6455  165.0976 C.ar    1  UNL1        0.0063
     21 C         142.1768  142.0243  164.3322 C.ar    1  UNL1        0.0180
     22 C         142.1697  141.9878  162.8327 C.ar    1  UNL1        0.0031
     23 O         142.1984  142.1337  168.8308 O.3     1  UNL1       -0.4640
     24 C         141.0992  142.8385  169.5692 C.3     1  UNL1        0.1678
     25 C         139.8777  142.7877  170.4384 C.3     1  UNL1        0.0473
     26 C         140.4169  144.1099  169.9790 C.3     1  UNL1        0.0473
     27 C         144.1408  140.8022  157.0785 C.3     1  UNL1        0.1291
     28 C         148.7658  142.5709  153.6902 C.3     1  UNL1        0.0896
     29 N         147.6095  142.1287  154.5373 N.3     1  UNL1       -0.2715
     30 C         147.5042  142.5879  155.9614 C.3     1  UNL1        0.0722
     31 C         146.3479  142.1458  156.8084 C.3     1  UNL1        0.0194
     32 C         145.2970  141.2443  156.2314 C.3     1  UNL1        0.0272
     33 C         145.4023  140.7851  154.8073 C.3     1  UNL1        0.0194
     34 C         146.5586  141.2272  153.9602 C.3     1  UNL1        0.0722
@<TRIPOS>BOND
     1    28    29    1
     2    29    30    1
     3    30    31    1
     4    31    32    1
     5    32    27    1
     6    27     1    1
     7     1     2   ar
     8     2     3   ar
     9     3    13    1
    10    13    14   ar
    11    14    15   ar
    12    15    16   ar
    13    16    17   ar
    14    17    18   ar
    15    18    23    1
    16    23    24    1
    17    24    25    1
    18    25    26    1
    19    18    19   ar
    20    19    20   ar
    21    20    21   ar
    22    21    22   ar
    23     3     4   ar
    24     4     5   ar
    25     5     6    1
    26     5     7   ar
    27     7     8   ar
    28     8     9   ar
    29     9    10   ar
    30    32    33    1
    31    33    34    1
    32    34    29    1
    33    10     1   ar
    34    22    13   ar
    35    10     4   ar
    36    21    16   ar
    37    26    24    1
    38     6    11    1
    39     6    12    1
@<TRIPOS>MOLECULE
*****
 34 39 0 0 0
SMALL
GASTEIGER

@<TRIPOS>ATOM
      1 N         142.8051  136.3623  156.7763 N.ar    1  UNL1       -0.2340
      2 N         143.0027  137.1322  158.0483 N.ar    1  UNL1       -0.1679
      3 C         141.7889  137.9860  158.2666 C.ar    1  UNL1        0.1065
      4 C         140.8412  137.7439  157.1294 C.ar    1  UNL1        0.0860
      5 C         139.4875  138.3075  156.8137 C.ar    1  UNL1        0.1316
      6 N         138.8595  139.3110  157.7348 N.pl3   1  UNL1       -0.3425
      7 N         138.7618  137.8676  155.5768 N.ar    1  UNL1       -0.2093
      8 C         139.3898  136.8641  154.6557 C.ar    1  UNL1        0.2014
      9 N         140.7436  136.3004  154.9715 N.ar    1  UNL1       -0.2050
     10 C         141.4692  136.7403  156.2083 C.ar    1  UNL1        0.1653
     11 H         139.3358  139.5998  158.5466 H       1  UNL1        0.1437
     12 H         137.9710  139.6810  157.5275 H       1  UNL1        0.1437
     13 C         141.5626  138.9185  159.4197 C.ar    1  UNL1        0.0196
     14 C         142.0486  140.3355  159.3449 C.ar    1  UNL1        0.0031
     15 C         141.8222  141.2678  160.4979 C.ar    1  UNL1        0.0193
     16 C         141.1098  140.7831  161.7257 C.ar    1  UNL1        0.0844
     17 N         140.8835  141.7155  162.8788 N.ar    1  UNL1       -0.2117
     18 C         140.1711  141.2307  164.1066 C.ar    1  UNL1        0.2247
     19 C         139.6851  139.8136  164.1813 C.ar    1  UNL1        0.0577
     20 C         139.9115  138.8812  163.0283 C.ar    1  UNL1        0.0063
     21 C         140.6238  139.3660  161.8005 C.ar    1  UNL1        0.0180
     22 C         140.8502  138.4337  160.6475 C.ar    1  UNL1        0.0031
     23 O         139.9447  142.1630  165.2596 O.3     1  UNL1       -0.4640
     24 C         139.1181  143.4007  165.0723 C.3     1  UNL1        0.1678
     25 C         138.9904  144.8949  165.1051 C.3     1  UNL1        0.0473
     26 C         137.8140  144.0500  164.7152 C.3     1  UNL1        0.0473
     27 C         143.7735  135.3857  156.1772 C.3     1  UNL1        0.1291
     28 C         143.2490  129.5281  157.3660 C.3     1  UNL1        0.0896
     29 N         143.3801  130.9926  157.0688 N.3     1  UNL1       -0.2715
     30 C         144.4724  131.7938  157.7131 C.3     1  UNL1        0.0722
     31 C         144.6035  133.2582  157.4159 C.3     1  UNL1        0.0194
     32 C         143.6423  133.9214  156.4744 C.3     1  UNL1        0.0272
     33 C         142.5500  133.1202  155.8302 C.3     1  UNL1        0.0194
     34 C         142.4189  131.6558  156.1274 C.3     1  UNL1        0.0722
@<TRIPOS>BOND
     1    28    29    1
     2    29    30    1
     3    30    31    1
     4    31    32    1
     5    32    27    1
     6    27     1    1
     7     1     2   ar
     8     2     3   ar
     9     3    13    1
    10    13    14   ar
    11    14    15   ar
    12    15    16   ar
    13    16    17   ar
    14    17    18   ar
    15    18    23    1
    16    23    24    1
    17    24    25    1
    18    25    26    1
    19    18    19   ar
    20    19    20   ar
    21    20    21   ar
    22    21    22   ar
    23     3     4   ar
    24     4     5   ar
    25     5     6    1
    26     5     7   ar
    27     7     8   ar
    28     8     9   ar
    29     9    10   ar
    30    32    33    1
    31    33    34    1
    32    34    29    1
    33    10     1   ar
    34    22    13   ar
    35    10     4   ar
    36    21    16   ar
    37    26    24    1
    38     6    11    1
    39     6    12    1
@<TRIPOS>MOLECULE
*****
 34 39 0 0 0
SMALL
GASTEIGER

@<TRIPOS>ATOM
      1 N         143.1283  138.9628  164.4574 N.ar    1  UNL1       -0.2340
      2 N         142.1626  138.4003  163.4569 N.ar    1  UNL1       -0.1679
      3 C         142.4064  139.0822  162.1433 C.ar    1  UNL1        0.1065
      4 C         143.5227  140.0662  162.3321 C.ar    1  UNL1        0.0860
      5 C         144.1906  141.0199  161.3863 C.ar    1  UNL1        0.1316
      6 N         143.7444  141.0938  159.9562 N.pl3   1  UNL1       -0.3425
      7 N         145.3046  141.8998  161.8708 N.ar    1  UNL1       -0.2093
      8 C         145.7508  141.8260  163.3010 C.ar    1  UNL1        0.2014
      9 N         145.0829  140.8722  164.2467 N.ar    1  UNL1       -0.2050
     10 C         143.9689  139.9924  163.7622 C.ar    1  UNL1        0.1653
     11 H         143.0132  140.5163  159.6382 H       1  UNL1        0.1437
     12 H         144.1827  141.7197  159.3354 H       1  UNL1        0.1437
     13 C         141.6641  138.8254  160.8654 C.ar    1  UNL1        0.0196
     14 C         140.2425  139.2810  160.7191 C.ar    1  UNL1        0.0031
     15 C         139.5004  139.0241  159.4412 C.ar    1  UNL1        0.0193
     16 C         140.1798  138.3116  158.3095 C.ar    1  UNL1        0.0844
     17 N         139.4376  138.0547  157.0315 N.ar    1  UNL1       -0.2117
     18 C         140.1170  137.3422  155.8998 C.ar    1  UNL1        0.2247
     19 C         141.5387  136.8866  156.0461 C.ar    1  UNL1        0.0577
     20 C         142.2808  137.1435  157.3241 C.ar    1  UNL1        0.0063
     21 C         141.6014  137.8560  158.4557 C.ar    1  UNL1        0.0180
     22 C         142.3436  138.1129  159.7337 C.ar    1  UNL1        0.0031
     23 O         139.3748  137.0853  154.6219 O.3     1  UNL1       -0.4640
     24 C         138.0954  137.8150  154.3379 C.3     1  UNL1        0.1678
     25 C         137.3629  139.0958  154.0675 C.3     1  UNL1        0.0473
     26 C         136.6120  137.7982  154.1164 C.3     1  UNL1        0.0473
     27 C         143.2347  138.5654  165.9000 C.3     1  UNL1        0.1291
     28 C         139.4174  140.8446  169.9291 C.3     1  UNL1        0.0896
     29 N         140.3718  140.2748  168.9217 N.3     1  UNL1       -0.2715
     30 C         141.7223  139.7899  169.3587 C.3     1  UNL1        0.0722
     31 C         142.6766  139.2201  168.3514 C.3     1  UNL1        0.0194
     32 C         142.2804  139.1352  166.9072 C.3     1  UNL1        0.0272
     33 C         140.9298  139.6200  166.4703 C.3     1  UNL1        0.0194
     34 C         139.9755  140.1898  167.4775 C.3     1  UNL1        0.0722
@<TRIPOS>BOND
     1    28    29    1
     2    29    30    1
     3    30    31    1
     4    31    32    1
     5    32    27    1
     6    27     1    1
     7     1     2   ar
     8     2     3   ar
     9     3    13    1
    10    13    14   ar
    11    14    15   ar
    12    15    16   ar
    13    16    17   ar
    14    17    18   ar
    15    18    23    1
    16    23    24    1
    17    24    25    1
    18    25    26    1
    19    18    19   ar
    20    19    20   ar
    21    20    21   ar
    22    21    22   ar
    23     3     4   ar
    24     4     5   ar
    25     5     6    1
    26     5     7   ar
    27     7     8   ar
    28     8     9   ar
    29     9    10   ar
    30    32    33    1
    31    33    34    1
    32    34    29    1
    33    10     1   ar
    34    22    13   ar
    35    10     4   ar
    36    21    16   ar
    37    26    24    1
    38     6    11    1
    39     6    12    1
@<TRIPOS>MOLECULE
*****
 34 39 0 0 0
SMALL
GASTEIGER

@<TRIPOS>ATOM
      1 N         140.5360  142.0636  164.2874 N.ar    1  UNL1       -0.2340
      2 N         140.5293  140.8336  163.4288 N.ar    1  UNL1       -0.1679
      3 C         141.6067  140.9833  162.3960 C.ar    1  UNL1        0.1065
      4 C         142.2793  142.3059  162.6162 C.ar    1  UNL1        0.0860
      5 C         143.4089  142.9884  161.9033 C.ar    1  UNL1        0.1316
      6 N         144.0705  142.3207  160.7344 N.pl3   1  UNL1       -0.3425
      7 N         143.8768  144.3386  162.3593 N.ar    1  UNL1       -0.2093
      8 C         143.2151  145.0063  163.5282 C.ar    1  UNL1        0.2014
      9 N         142.0855  144.3237  164.2411 N.ar    1  UNL1       -0.2050
     10 C         141.6177  142.9735  163.7851 C.ar    1  UNL1        0.1653
     11 H         143.7634  141.4345  160.4351 H       1  UNL1        0.1437
     12 H         144.8119  142.7687  160.2665 H       1  UNL1        0.1437
     13 C         141.9510  139.9856  161.3301 C.ar    1  UNL1        0.0196
     14 C         142.9996  138.9445  161.5878 C.ar    1  UNL1        0.0031
     15 C         143.3439  137.9469  160.5219 C.ar    1  UNL1        0.0193
     16 C         142.6395  137.9904  159.1982 C.ar    1  UNL1        0.0844
     17 N         142.9839  136.9928  158.1323 N.ar    1  UNL1       -0.2117
     18 C         142.2795  137.0363  156.8086 C.ar    1  UNL1        0.2247
     19 C         141.2309  138.0775  156.5509 C.ar    1  UNL1        0.0577
     20 C         140.8866  139.0751  157.6169 C.ar    1  UNL1        0.0063
     21 C         141.5909  139.0316  158.9405 C.ar    1  UNL1        0.0180
     22 C         141.2467  140.0292  160.0064 C.ar    1  UNL1        0.0031
     23 O         142.6238  136.0387  155.7427 O.3     1  UNL1       -0.4640
     24 C         142.5051  134.5699  156.0236 C.3     1  UNL1        0.1678
     25 C         142.9177  133.3598  156.8080 C.3     1  UNL1        0.0473
     26 C         141.8869  133.2362  155.7254 C.3     1  UNL1        0.0473
     27 C         139.6217  142.3359  165.4449 C.3     1  UNL1        0.1291
     28 C         141.2178  140.6726  170.9844 C.3     1  UNL1        0.0896
     29 N         140.8187  141.0885  169.5995 N.3     1  UNL1       -0.2715
     30 C         140.1375  140.1097  168.6895 C.3     1  UNL1        0.0722
     31 C         139.7385  140.5256  167.3047 C.3     1  UNL1        0.0194
     32 C         140.0207  141.9201  166.8298 C.3     1  UNL1        0.0272
     33 C         140.7020  142.8988  167.7397 C.3     1  UNL1        0.0194
     34 C         141.1010  142.4830  169.1246 C.3     1  UNL1        0.0722
@<TRIPOS>BOND
     1    28    29    1
     2    29    30    1
     3    30    31    1
     4    31    32    1
     5    32    27    1
     6    27     1    1
     7     1     2   ar
     8     2     3   ar
     9     3    13    1
    10    13    14   ar
    11    14    15   ar
    12    15    16   ar
    13    16    17   ar
    14    17    18   ar
    15    18    23    1
    16    23    24    1
    17    24    25    1
    18    25    26    1
    19    18    19   ar
    20    19    20   ar
    21    20    21   ar
    22    21    22   ar
    23     3     4   ar
    24     4     5   ar
    25     5     6    1
    26     5     7   ar
    27     7     8   ar
    28     8     9   ar
    29     9    10   ar
    30    32    33    1
    31    33    34    1
    32    34    29    1
    33    10     1   ar
    34    22    13   ar
    35    10     4   ar
    36    21    16   ar
    37    26    24    1
    38     6    11    1
    39     6    12    1
@<TRIPOS>MOLECULE
*****
 34 39 0 0 0
SMALL
GASTEIGER

@<TRIPOS>ATOM
      1 N         142.5156  135.9423  155.7338 N.ar    1  UNL1       -0.2340
      2 N         143.3334  136.5248  156.8482 N.ar    1  UNL1       -0.1679
      3 C         142.4920  137.5448  157.5564 C.ar    1  UNL1        0.1065
      4 C         141.1541  137.5928  156.8796 C.ar    1  UNL1        0.0860
      5 C         139.9246  138.4103  157.1436 C.ar    1  UNL1        0.1316
      6 N         139.9100  139.4008  158.2700 N.pl3   1  UNL1       -0.3425
      7 N         138.7095  138.2375  156.2811 N.ar    1  UNL1       -0.2093
      8 C         138.7241  137.2470  155.1547 C.ar    1  UNL1        0.2014
      9 N         139.9538  136.4295  154.8908 N.ar    1  UNL1       -0.2050
     10 C         141.1687  136.6023  155.7532 C.ar    1  UNL1        0.1653
     11 H         140.7075  139.5142  158.8360 H       1  UNL1        0.1437
     12 H         139.1030  139.9374  158.4432 H       1  UNL1        0.1437
     13 C         142.9142  138.3718  158.7345 C.ar    1  UNL1        0.0196
     14 C         143.4992  139.7366  158.5218 C.ar    1  UNL1        0.0031
     15 C         143.9214  140.5635  159.6998 C.ar    1  UNL1        0.0193
     16 C         143.7587  140.0256  161.0906 C.ar    1  UNL1        0.0844
     17 N         144.1809  140.8526  162.2687 N.ar    1  UNL1       -0.2117
     18 C         144.0182  140.3148  163.6595 C.ar    1  UNL1        0.2247
     19 C         143.4332  138.9500  163.8722 C.ar    1  UNL1        0.0577
     20 C         143.0110  138.1231  162.6941 C.ar    1  UNL1        0.0063
     21 C         143.1737  138.6609  161.3033 C.ar    1  UNL1        0.0180
     22 C         142.7515  137.8340  160.1253 C.ar    1  UNL1        0.0031
     23 O         144.4404  141.1417  164.8376 O.3     1  UNL1       -0.4640
     24 C         144.2406  142.6283  164.8207 C.3     1  UNL1        0.1678
     25 C         144.5577  143.9880  165.3691 C.3     1  UNL1        0.0473
     26 C         143.5774  143.8434  164.2431 C.3     1  UNL1        0.0473
     27 C         142.9656  134.8853  154.7693 C.3     1  UNL1        0.1291
     28 C         142.6418  129.0929  156.3003 C.3     1  UNL1        0.0896
     29 N         142.7228  130.5411  155.9176 N.3     1  UNL1       -0.2715
     30 C         141.5628  131.2020  155.2337 C.3     1  UNL1        0.0722
     31 C         141.6438  132.6501  154.8509 C.3     1  UNL1        0.0194
     32 C         142.8847  133.4372  155.1521 C.3     1  UNL1        0.0272
     33 C         144.0446  132.7762  155.8359 C.3     1  UNL1        0.0194
     34 C         143.9637  131.3282  156.2187 C.3     1  UNL1        0.0722
@<TRIPOS>BOND
     1    28    29    1
     2    29    30    1
     3    30    31    1
     4    31    32    1
     5    32    27    1
     6    27     1    1
     7     1     2   ar
     8     2     3   ar
     9     3    13    1
    10    13    14   ar
    11    14    15   ar
    12    15    16   ar
    13    16    17   ar
    14    17    18   ar
    15    18    23    1
    16    23    24    1
    17    24    25    1
    18    25    26    1
    19    18    19   ar
    20    19    20   ar
    21    20    21   ar
    22    21    22   ar
    23     3     4   ar
    24     4     5   ar
    25     5     6    1
    26     5     7   ar
    27     7     8   ar
    28     8     9   ar
    29     9    10   ar
    30    32    33    1
    31    33    34    1
    32    34    29    1
    33    10     1   ar
    34    22    13   ar
    35    10     4   ar
    36    21    16   ar
    37    26    24    1
    38     6    11    1
    39     6    12    1
