@<TRIPOS>MOLECULE
*****
 24 26 0 0 0
SMALL
GASTEIGER

@<TRIPOS>ATOM
      1 N         139.2096  146.6605  161.3194 N.pl3   1  UNL1       -0.2468
      2 C         139.5611  145.3745  162.0072 C.cat   1  UNL1        0.4198
      3 N         140.8855  145.2302  162.6962 N.2     1  UNL1       -0.0690
      4 C         141.2370  143.9442  163.3840 C.3     1  UNL1        0.2494
      5 C         141.5883  142.6583  164.0717 C.3     1  UNL1        0.0763
      6 C         142.9128  142.5140  164.7607 C.3     1  UNL1        0.0069
      7 C         143.8859  143.6555  164.7621 C.3     1  UNL1        0.0005
      8 C         143.5346  144.9414  164.0744 C.3     1  UNL1        0.0069
      9 C         142.2101  145.0857  163.3853 C.3     1  UNL1        0.0763
     10 N         140.2639  142.8027  163.3826 N.pl3   1  UNL1       -0.1985
     11 C         138.9393  142.9471  162.6935 C.cat   1  UNL1        0.3828
     12 N         138.5879  144.2330  162.0058 N.2     1  UNL1       -0.0088
     13 H         139.8483  147.4097  161.3203 H       1  UNL1        0.2415
     14 H         138.3403  146.7552  160.8672 H       1  UNL1        0.2415
     15 H         140.4945  141.9587  163.8340 H       1  UNL1        0.2483
     16 N         137.9662  141.8056  162.6922 N.pl3   1  UNL1       -0.2046
     17 H         137.0889  141.9072  162.2571 H       1  UNL1        0.2512
     18 C         138.3297  140.5094  163.3536 C.ar    1  UNL1        0.1090
     19 C         139.0089  139.4294  162.5647 C.ar    1  UNL1        0.0312
     20 C         139.3725  138.1332  163.2262 C.ar    1  UNL1        0.0032
     21 C         139.0568  137.9169  164.6766 C.ar    1  UNL1        0.0069
     22 C         138.3776  138.9968  165.4655 C.ar    1  UNL1        0.0372
     23 BR        138.0620  138.7805  166.9159 Br      1  UNL1       -0.0489
     24 C         138.0141  140.2931  164.8040 C.ar    1  UNL1        0.0379
@<TRIPOS>BOND
     1     1     2    1
     2     2     3    2
     3     3     4    1
     4     4     5    1
     5     5     6    1
     6     6     7    1
     7     7     8    1
     8     8     9    1
     9     4    10    1
    10    10    11    1
    11    11    16    1
    12    16    18    1
    13    18    19   ar
    14    19    20   ar
    15    20    21   ar
    16    21    22   ar
    17    22    23    1
    18    22    24   ar
    19    11    12    2
    20    12     2    1
    21     9     4    1
    22    24    18   ar
    23     1    13    1
    24     1    14    1
    25    10    15    1
    26    16    17    1
@<TRIPOS>MOLECULE
*****
 24 26 0 0 0
SMALL
GASTEIGER

@<TRIPOS>ATOM
      1 N         136.9622  137.5593  167.6005 N.pl3   1  UNL1       -0.2468
      2 C         137.8690  138.7011  167.2482 C.cat   1  UNL1        0.4198
      3 N         138.6421  139.4044  168.3241 N.2     1  UNL1       -0.0690
      4 C         139.5489  140.5463  167.9718 C.3     1  UNL1        0.2494
      5 C         140.4556  141.6880  167.6195 C.3     1  UNL1        0.0763
      6 C         141.2287  142.3913  168.6954 C.3     1  UNL1        0.0069
      7 C         141.0951  141.9528  170.1237 C.3     1  UNL1        0.0005
      8 C         140.1884  140.8111  170.4760 C.3     1  UNL1        0.0069
      9 C         139.4153  140.1078  169.4001 C.3     1  UNL1        0.0763
     10 N         139.6825  140.9847  166.5436 N.pl3   1  UNL1       -0.1985
     11 C         138.9093  140.2814  165.4677 C.cat   1  UNL1        0.3828
     12 N         138.0026  139.1396  165.8200 N.2     1  UNL1       -0.0088
     13 H         136.8745  137.2715  168.5379 H       1  UNL1        0.2415
     14 H         136.4548  137.0977  166.8944 H       1  UNL1        0.2415
     15 H         140.2776  141.7341  166.3123 H       1  UNL1        0.2483
     16 N         139.0429  140.7198  164.0394 N.pl3   1  UNL1       -0.2046
     17 H         139.1194  140.0484  163.3235 H       1  UNL1        0.2512
     18 C         139.0600  142.1813  163.7020 C.ar    1  UNL1        0.1090
     19 C         137.7799  142.8896  163.3710 C.ar    1  UNL1        0.0312
     20 C         137.7970  144.3511  163.0335 C.ar    1  UNL1        0.0032
     21 C         139.0942  145.1042  163.0271 C.ar    1  UNL1        0.0069
     22 C         140.3743  144.3959  163.3581 C.ar    1  UNL1        0.0372
     23 BR        141.6715  145.1490  163.3517 Br      1  UNL1       -0.0489
     24 C         140.3573  142.9344  163.6956 C.ar    1  UNL1        0.0379
@<TRIPOS>BOND
     1     1     2    1
     2     2     3    2
     3     3     4    1
     4     4     5    1
     5     5     6    1
     6     6     7    1
     7     7     8    1
     8     8     9    1
     9     4    10    1
    10    10    11    1
    11    11    16    1
    12    16    18    1
    13    18    19   ar
    14    19    20   ar
    15    20    21   ar
    16    21    22   ar
    17    22    23    1
    18    22    24   ar
    19    11    12    2
    20    12     2    1
    21     9     4    1
    22    24    18   ar
    23     1    13    1
    24     1    14    1
    25    10    15    1
    26    16    17    1
@<TRIPOS>MOLECULE
*****
 24 26 0 0 0
SMALL
GASTEIGER

@<TRIPOS>ATOM
      1 N         137.7125  138.1203  167.1206 N.pl3   1  UNL1       -0.2468
      2 C         138.5466  139.3670  167.1134 C.cat   1  UNL1        0.4198
      3 N         139.2221  139.8248  168.3720 N.2     1  UNL1       -0.0690
      4 C         140.0562  141.0715  168.3648 C.3     1  UNL1        0.2494
      5 C         140.8902  142.3182  168.3576 C.3     1  UNL1        0.0763
      6 C         141.5657  142.7760  169.6162 C.3     1  UNL1        0.0069
      7 C         141.4071  141.9870  170.8821 C.3     1  UNL1        0.0005
      8 C         140.5730  140.7403  170.8893 C.3     1  UNL1        0.0069
      9 C         139.8976  140.2826  169.6307 C.3     1  UNL1        0.0763
     10 N         140.2148  141.8605  167.0990 N.pl3   1  UNL1       -0.1985
     11 C         139.5393  141.4026  165.8403 C.cat   1  UNL1        0.3828
     12 N         138.7052  140.1560  165.8475 N.2     1  UNL1       -0.0088
     13 H         137.6084  137.6025  167.9514 H       1  UNL1        0.2415
     14 H         137.2692  137.8199  166.2945 H       1  UNL1        0.2415
     15 H         140.7622  142.6787  167.0942 H       1  UNL1        0.2483
     16 N         139.6979  142.1916  164.5744 N.pl3   1  UNL1       -0.2046
     17 H         138.9939  142.1656  163.8867 H       1  UNL1        0.2512
     18 C         140.9291  143.0201  164.3563 C.ar    1  UNL1        0.1090
     19 C         140.8039  144.4831  164.0492 C.ar    1  UNL1        0.0312
     20 C         142.0351  145.3116  163.8311 C.ar    1  UNL1        0.0032
     21 C         143.3915  144.6773  163.9202 C.ar    1  UNL1        0.0069
     22 C         143.5167  143.2145  164.2273 C.ar    1  UNL1        0.0372
     23 BR        144.8731  142.5802  164.3164 Br      1  UNL1       -0.0489
     24 C         142.2854  142.3859  164.4454 C.ar    1  UNL1        0.0379
@<TRIPOS>BOND
     1     1     2    1
     2     2     3    2
     3     3     4    1
     4     4     5    1
     5     5     6    1
     6     6     7    1
     7     7     8    1
     8     8     9    1
     9     4    10    1
    10    10    11    1
    11    11    16    1
    12    16    18    1
    13    18    19   ar
    14    19    20   ar
    15    20    21   ar
    16    21    22   ar
    17    22    23    1
    18    22    24   ar
    19    11    12    2
    20    12     2    1
    21     9     4    1
    22    24    18   ar
    23     1    13    1
    24     1    14    1
    25    10    15    1
    26    16    17    1
@<TRIPOS>MOLECULE
*****
 24 26 0 0 0
SMALL
GASTEIGER

@<TRIPOS>ATOM
      1 N         137.9644  137.3928  161.8654 N.pl3   1  UNL1       -0.2468
      2 C         139.0703  137.8378  162.7759 C.cat   1  UNL1        0.4198
      3 N         138.7522  138.3348  164.1550 N.2     1  UNL1       -0.0690
      4 C         139.8581  138.7798  165.0655 C.3     1  UNL1        0.2494
      5 C         140.9639  139.2249  165.9760 C.3     1  UNL1        0.0763
      6 C         140.6458  139.7218  167.3550 C.3     1  UNL1        0.0069
      7 C         139.2218  139.7736  167.8236 C.3     1  UNL1        0.0005
      8 C         138.1160  139.3286  166.9132 C.3     1  UNL1        0.0069
      9 C         138.4341  138.8317  165.5341 C.3     1  UNL1        0.0763
     10 N         141.2820  138.7279  164.5969 N.pl3   1  UNL1       -0.1985
     11 C         141.6001  138.2310  163.2178 C.cat   1  UNL1        0.3828
     12 N         140.4943  137.7860  162.3073 N.2     1  UNL1       -0.0088
     13 H         137.0298  137.4268  162.1729 H       1  UNL1        0.2415
     14 H         138.1732  137.0666  160.9603 H       1  UNL1        0.2415
     15 H         142.0079  139.0200  165.1945 H       1  UNL1        0.2483
     16 N         143.0241  138.1791  162.7492 N.pl3   1  UNL1       -0.2046
     17 H         143.3959  137.3386  162.3964 H       1  UNL1        0.2512
     18 C         143.8816  139.4079  162.8180 C.ar    1  UNL1        0.1090
     19 C         144.7843  139.6276  163.9957 C.ar    1  UNL1        0.0312
     20 C         145.6417  140.8564  164.0646 C.ar    1  UNL1        0.0032
     21 C         145.5965  141.8656  162.9557 C.ar    1  UNL1        0.0069
     22 C         144.6939  141.6460  161.7781 C.ar    1  UNL1        0.0372
     23 BR        144.6487  142.6552  160.6693 Br      1  UNL1       -0.0489
     24 C         143.8364  140.4171  161.7092 C.ar    1  UNL1        0.0379
@<TRIPOS>BOND
     1     1     2    1
     2     2     3    2
     3     3     4    1
     4     4     5    1
     5     5     6    1
     6     6     7    1
     7     7     8    1
     8     8     9    1
     9     4    10    1
    10    10    11    1
    11    11    16    1
    12    16    18    1
    13    18    19   ar
    14    19    20   ar
    15    20    21   ar
    16    21    22   ar
    17    22    23    1
    18    22    24   ar
    19    11    12    2
    20    12     2    1
    21     9     4    1
    22    24    18   ar
    23     1    13    1
    24     1    14    1
    25    10    15    1
    26    16    17    1
@<TRIPOS>MOLECULE
*****
 24 26 0 0 0
SMALL
GASTEIGER

@<TRIPOS>ATOM
      1 N         143.9716  138.4397  165.9145 N.pl3   1  UNL1       -0.2468
      2 C         142.6624  138.9337  166.4552 C.cat   1  UNL1        0.4198
      3 N         142.5773  139.4448  167.8629 N.2     1  UNL1       -0.0690
      4 C         141.2682  139.9388  168.4036 C.3     1  UNL1        0.2494
      5 C         139.9592  140.4328  168.9442 C.3     1  UNL1        0.0763
      6 C         139.8741  140.9439  170.3518 C.3     1  UNL1        0.0069
      7 C         141.0980  140.9611  171.2188 C.3     1  UNL1        0.0005
      8 C         142.4071  140.4672  170.6782 C.3     1  UNL1        0.0069
      9 C         142.4922  139.9560  169.2705 C.3     1  UNL1        0.0763
     10 N         140.0443  139.9216  167.5366 N.pl3   1  UNL1       -0.1985
     11 C         140.1295  139.4105  166.1289 C.cat   1  UNL1        0.3828
     12 N         141.4385  138.9165  165.5883 N.2     1  UNL1       -0.0088
     13 H         144.7749  138.4509  166.4835 H       1  UNL1        0.2415
     14 H         144.0274  138.1042  164.9906 H       1  UNL1        0.2415
     15 H         139.1851  140.2459  167.8914 H       1  UNL1        0.2483
     16 N         138.9055  139.3933  165.2619 N.pl3   1  UNL1       -0.2046
     17 H         138.3614  138.5755  165.1945 H       1  UNL1        0.2512
     18 C         138.5105  140.6220  164.4976 C.ar    1  UNL1        0.1090
     19 C         137.8912  140.4924  163.1375 C.ar    1  UNL1        0.0312
     20 C         137.4962  141.7211  162.3732 C.ar    1  UNL1        0.0032
     21 C         137.7205  143.0794  162.9689 C.ar    1  UNL1        0.0069
     22 C         138.3398  143.2090  164.3289 C.ar    1  UNL1        0.0372
     23 BR        138.5641  144.5672  164.9245 Br      1  UNL1       -0.0489
     24 C         138.7348  141.9802  165.0933 C.ar    1  UNL1        0.0379
@<TRIPOS>BOND
     1     1     2    1
     2     2     3    2
     3     3     4    1
     4     4     5    1
     5     5     6    1
     6     6     7    1
     7     7     8    1
     8     8     9    1
     9     4    10    1
    10    10    11    1
    11    11    16    1
    12    16    18    1
    13    18    19   ar
    14    19    20   ar
    15    20    21   ar
    16    21    22   ar
    17    22    23    1
    18    22    24   ar
    19    11    12    2
    20    12     2    1
    21     9     4    1
    22    24    18   ar
    23     1    13    1
    24     1    14    1
    25    10    15    1
    26    16    17    1
@<TRIPOS>MOLECULE
*****
 24 26 0 0 0
SMALL
GASTEIGER

@<TRIPOS>ATOM
      1 N         144.1963  137.8894  166.7528 N.pl3   1  UNL1       -0.2468
      2 C         143.0396  138.8246  166.9472 C.cat   1  UNL1        0.4198
      3 N         142.7612  139.4012  168.3036 N.2     1  UNL1       -0.0690
      4 C         141.6045  140.3364  168.4980 C.3     1  UNL1        0.2494
      5 C         140.4479  141.2715  168.6924 C.3     1  UNL1        0.0763
      6 C         140.1695  141.8481  170.0488 C.3     1  UNL1        0.0069
      7 C         141.0477  141.4897  171.2109 C.3     1  UNL1        0.0005
      8 C         142.2043  140.5546  171.0165 C.3     1  UNL1        0.0069
      9 C         142.4827  139.9780  169.6601 C.3     1  UNL1        0.0763
     10 N         140.7263  140.6948  167.3360 N.pl3   1  UNL1       -0.1985
     11 C         141.0048  140.1181  165.9795 C.cat   1  UNL1        0.3828
     12 N         142.1614  139.1830  165.7852 N.2     1  UNL1       -0.0088
     13 H         144.7727  137.6542  167.5154 H       1  UNL1        0.2415
     14 H         144.3790  137.5109  165.8625 H       1  UNL1        0.2415
     15 H         139.9672  141.3085  167.4636 H       1  UNL1        0.2483
     16 N         140.1266  140.4765  164.8175 N.pl3   1  UNL1       -0.2046
     17 H         139.7584  139.7678  164.2418 H       1  UNL1        0.2512
     18 C         139.8094  141.9146  164.5327 C.ar    1  UNL1        0.1090
     19 C         138.3853  142.3857  164.5473 C.ar    1  UNL1        0.0312
     20 C         138.0681  143.8238  164.2624 C.ar    1  UNL1        0.0032
     21 C         139.1750  144.7909  163.9629 C.ar    1  UNL1        0.0069
     22 C         140.5990  144.3198  163.9483 C.ar    1  UNL1        0.0372
     23 BR        141.7058  145.2869  163.6488 Br      1  UNL1       -0.0489
     24 C         140.9162  142.8817  164.2331 C.ar    1  UNL1        0.0379
@<TRIPOS>BOND
     1     1     2    1
     2     2     3    2
     3     3     4    1
     4     4     5    1
     5     5     6    1
     6     6     7    1
     7     7     8    1
     8     8     9    1
     9     4    10    1
    10    10    11    1
    11    11    16    1
    12    16    18    1
    13    18    19   ar
    14    19    20   ar
    15    20    21   ar
    16    21    22   ar
    17    22    23    1
    18    22    24   ar
    19    11    12    2
    20    12     2    1
    21     9     4    1
    22    24    18   ar
    23     1    13    1
    24     1    14    1
    25    10    15    1
    26    16    17    1
@<TRIPOS>MOLECULE
*****
 24 26 0 0 0
SMALL
GASTEIGER

@<TRIPOS>ATOM
      1 N         137.2606  137.8487  167.3342 N.pl3   1  UNL1       -0.2468
      2 C         138.4442  138.7308  167.0671 C.cat   1  UNL1        0.4198
      3 N         138.9497  139.6520  168.1375 N.2     1  UNL1       -0.0690
      4 C         140.1332  140.5341  167.8705 C.3     1  UNL1        0.2494
      5 C         141.3167  141.4161  167.6034 C.3     1  UNL1        0.0763
      6 C         141.8222  142.3373  168.6738 C.3     1  UNL1        0.0069
      7 C         141.1442  142.3765  170.0113 C.3     1  UNL1        0.0005
      8 C         139.9607  141.4945  170.2784 C.3     1  UNL1        0.0069
      9 C         139.4552  140.5733  169.2080 C.3     1  UNL1        0.0763
     10 N         140.8112  140.4949  166.5330 N.pl3   1  UNL1       -0.1985
     11 C         140.3056  139.5736  165.4626 C.cat   1  UNL1        0.3828
     12 N         139.1222  138.6916  165.7297 N.2     1  UNL1       -0.0088
     13 H         136.8156  137.8745  168.2120 H       1  UNL1        0.2415
     14 H         136.9288  137.2441  166.6316 H       1  UNL1        0.2415
     15 H         141.5880  141.0738  166.3578 H       1  UNL1        0.2483
     16 N         140.9836  139.5344  164.1252 N.pl3   1  UNL1       -0.2046
     17 H         140.4899  139.2243  163.3319 H       1  UNL1        0.2512
     18 C         142.4139  139.9676  163.9963 C.ar    1  UNL1        0.1090
     19 C         143.5150  139.0759  164.4889 C.ar    1  UNL1        0.0312
     20 C         144.9452  139.5092  164.3601 C.ar    1  UNL1        0.0032
     21 C         145.2745  140.8341  163.7387 C.ar    1  UNL1        0.0069
     22 C         144.1735  141.7258  163.2462 C.ar    1  UNL1        0.0372
     23 BR        144.5027  143.0508  162.6249 Br      1  UNL1       -0.0489
     24 C         142.7431  141.2926  163.3750 C.ar    1  UNL1        0.0379
@<TRIPOS>BOND
     1     1     2    1
     2     2     3    2
     3     3     4    1
     4     4     5    1
     5     5     6    1
     6     6     7    1
     7     7     8    1
     8     8     9    1
     9     4    10    1
    10    10    11    1
    11    11    16    1
    12    16    18    1
    13    18    19   ar
    14    19    20   ar
    15    20    21   ar
    16    21    22   ar
    17    22    23    1
    18    22    24   ar
    19    11    12    2
    20    12     2    1
    21     9     4    1
    22    24    18   ar
    23     1    13    1
    24     1    14    1
    25    10    15    1
    26    16    17    1
@<TRIPOS>MOLECULE
*****
 24 26 0 0 0
SMALL
GASTEIGER

@<TRIPOS>ATOM
      1 N         137.9494  137.9239  162.0086 N.pl3   1  UNL1       -0.2468
      2 C         138.3097  138.9116  163.0786 C.cat   1  UNL1        0.4198
      3 N         138.1122  140.3795  162.8415 N.2     1  UNL1       -0.0690
      4 C         138.4725  141.3672  163.9114 C.3     1  UNL1        0.2494
      5 C         138.8329  142.3548  164.9813 C.3     1  UNL1        0.0763
      6 C         138.6353  143.8227  164.7443 C.3     1  UNL1        0.0069
      7 C         138.0775  144.3030  163.4373 C.3     1  UNL1        0.0005
      8 C         137.7171  143.3154  162.3674 C.3     1  UNL1        0.0069
      9 C         137.9147  141.8475  162.6045 C.3     1  UNL1        0.0763
     10 N         139.0304  140.8870  165.2184 N.pl3   1  UNL1       -0.1985
     11 C         139.2279  139.4190  165.4554 C.cat   1  UNL1        0.3828
     12 N         138.8676  138.4314  164.3855 N.2     1  UNL1       -0.0088
     13 H         137.5833  138.2391  161.1508 H       1  UNL1        0.2415
     14 H         138.0791  136.9605  162.1642 H       1  UNL1        0.2415
     15 H         139.2669  141.5352  165.9206 H       1  UNL1        0.2483
     16 N         139.7858  138.9387  166.7624 N.pl3   1  UNL1       -0.2046
     17 H         139.9217  137.9757  166.9155 H       1  UNL1        0.2512
     18 C         140.1367  139.9256  167.8361 C.ar    1  UNL1        0.1090
     19 C         139.1554  140.2234  168.9308 C.ar    1  UNL1        0.0312
     20 C         139.5062  141.2103  170.0045 C.ar    1  UNL1        0.0032
     21 C         140.8384  141.8995  169.9835 C.ar    1  UNL1        0.0069
     22 C         141.8196  141.6018  168.8888 C.ar    1  UNL1        0.0372
     23 BR        143.1518  142.2910  168.8678 Br      1  UNL1       -0.0489
     24 C         141.4688  140.6148  167.8150 C.ar    1  UNL1        0.0379
@<TRIPOS>BOND
     1     1     2    1
     2     2     3    2
     3     3     4    1
     4     4     5    1
     5     5     6    1
     6     6     7    1
     7     7     8    1
     8     8     9    1
     9     4    10    1
    10    10    11    1
    11    11    16    1
    12    16    18    1
    13    18    19   ar
    14    19    20   ar
    15    20    21   ar
    16    21    22   ar
    17    22    23    1
    18    22    24   ar
    19    11    12    2
    20    12     2    1
    21     9     4    1
    22    24    18   ar
    23     1    13    1
    24     1    14    1
    25    10    15    1
    26    16    17    1
@<TRIPOS>MOLECULE
*****
 24 26 0 0 0
SMALL
GASTEIGER

@<TRIPOS>ATOM
      1 N         137.3803  138.1278  167.3722 N.pl3   1  UNL1       -0.2468
      2 C         138.3906  138.8505  166.5312 C.cat   1  UNL1        0.4198
      3 N         138.5434  138.5045  165.0797 N.2     1  UNL1       -0.0690
      4 C         139.5536  139.2271  164.2387 C.3     1  UNL1        0.2494
      5 C         140.5639  139.9498  163.3978 C.3     1  UNL1        0.0763
      6 C         140.7166  139.6038  161.9463 C.3     1  UNL1        0.0069
      7 C         139.8591  138.5352  161.3357 C.3     1  UNL1        0.0005
      8 C         138.8489  137.8126  162.1766 C.3     1  UNL1        0.0069
      9 C         138.6961  138.1585  163.6281 C.3     1  UNL1        0.0763
     10 N         140.4111  140.2957  164.8493 N.pl3   1  UNL1       -0.1985
     11 C         140.2583  140.6417  166.3009 C.cat   1  UNL1        0.3828
     12 N         139.2481  139.9191  167.1418 N.2     1  UNL1       -0.0088
     13 H         136.8175  137.4265  166.9715 H       1  UNL1        0.2415
     14 H         137.2801  138.3549  168.3249 H       1  UNL1        0.2415
     15 H         141.0742  140.7700  164.2973 H       1  UNL1        0.2483
     16 N         141.1158  141.7103  166.9115 N.pl3   1  UNL1       -0.2046
     17 H         141.1081  141.8507  167.8859 H       1  UNL1        0.2512
     18 C         141.9850  142.5650  166.0375 C.ar    1  UNL1        0.1090
     19 C         143.4775  142.5035  166.1744 C.ar    1  UNL1        0.0312
     20 C         144.3467  143.3583  165.3004 C.ar    1  UNL1        0.0032
     21 C         143.7235  144.2745  164.2894 C.ar    1  UNL1        0.0069
     22 C         142.2310  144.3359  164.1524 C.ar    1  UNL1        0.0372
     23 BR        141.6078  145.2521  163.1414 Br      1  UNL1       -0.0489
     24 C         141.3618  143.4812  165.0264 C.ar    1  UNL1        0.0379
@<TRIPOS>BOND
     1     1     2    1
     2     2     3    2
     3     3     4    1
     4     4     5    1
     5     5     6    1
     6     6     7    1
     7     7     8    1
     8     8     9    1
     9     4    10    1
    10    10    11    1
    11    11    16    1
    12    16    18    1
    13    18    19   ar
    14    19    20   ar
    15    20    21   ar
    16    21    22   ar
    17    22    23    1
    18    22    24   ar
    19    11    12    2
    20    12     2    1
    21     9     4    1
    22    24    18   ar
    23     1    13    1
    24     1    14    1
    25    10    15    1
    26    16    17    1
