@<TRIPOS>MOLECULE
*****
 35 39 0 0 0
SMALL
GASTEIGER

@<TRIPOS>ATOM
      1 C         142.8159  137.3303  159.1785 C.2     1  UNL1        0.0036
      2 C         142.8437  137.7637  160.6143 C.2     1  UNL1        0.0036
      3 C         142.7130  138.6394  161.8251 C.3     1  UNL1        0.1686
      4 O         142.4397  139.8518  162.6649 O.3     1  UNL1       -0.3442
      5 C         142.0567  141.2547  163.0324 C.3     1  UNL1        0.1721
      6 C         141.6102  142.6790  162.8833 C.ar    1  UNL1        0.0425
      7 C         141.1541  143.9527  162.2355 C.ar    1  UNL1        0.0158
      8 C         140.7434  144.9223  161.1673 C.ar    1  UNL1        0.0504
      9 C         140.7172  145.5274  162.5850 C.ar    1  UNL1        0.0178
     10 C         141.0331  144.9789  163.9450 C.ar    1  UNL1        0.0379
     11 C         141.4796  143.5547  164.0940 C.ar    1  UNL1        0.1370
     12 N         140.4275  145.4708  159.8073 N.pl3   1  UNL1       -0.2825
     13 C         140.2571  145.3742  158.0005 C.ar    1  UNL1        0.2208
     14 N         139.8010  146.6479  157.3528 N.ar    1  UNL1       -0.2120
     15 C         139.6182  146.7091  155.8653 C.ar    1  UNL1        0.1035
     16 C         139.8915  145.4967  155.0255 C.ar    1  UNL1        0.0430
     17 C         140.3476  144.2230  155.6732 C.ar    1  UNL1        0.1201
     18 N         140.5304  144.1617  157.1607 N.ar    1  UNL1       -0.2104
     19 C         140.6209  143.0105  154.8334 C.ar    1  UNL1        0.1626
     20 C         140.5772  142.6252  153.3844 C.ar    1  UNL1        0.0419
     21 C         140.9983  141.1898  153.2735 C.ar    1  UNL1        0.0387
     22 C         141.4504  140.1834  154.6150 C.ar    1  UNL1        0.1528
     23 O         141.0039  141.6076  154.4659 O.2     1  UNL1       -0.4537
     24 C         141.9065  138.9097  155.2627 C.3     1  UNL1        0.2064
     25 O         142.3173  137.9400  156.3311 O.3     1  UNL1       -0.3409
     26 C         142.6331  137.3915  157.6910 C.3     1  UNL1        0.1687
     27 H         140.1683  146.4005  160.0016 H       1  UNL1        0.1551
     28 O         141.7954  143.0062  165.4540 O.3     1  UNL1       -0.4742
     29 C         140.6871  142.7227  166.4243 C.3     1  UNL1        0.2226
     30 C         139.8024  141.5281  166.2241 C.3     1  UNL1        0.1200
     31 N         138.9066  141.4511  165.0234 N.3     1  UNL1       -0.2696
     32 C         138.0951  142.5774  164.4552 C.3     1  UNL1        0.0722
     33 C         137.3520  142.0566  163.2608 C.3     1  UNL1        0.0188
     34 C         137.7043  140.6085  163.0908 C.3     1  UNL1        0.0188
     35 C         138.6651  140.2343  164.1803 C.3     1  UNL1        0.0722
@<TRIPOS>BOND
     1     1     2    2
     2     2     3    1
     3     3     4    1
     4     4     5    1
     5     5     6    1
     6     6     7   ar
     7     7     8   ar
     8     8     9   ar
     9     9    10   ar
    10    10    11   ar
    11    11    28    1
    12    28    29    1
    13    29    30    1
    14    30    31    1
    15    31    32    1
    16    32    33    1
    17    33    34    1
    18    34    35    1
    19     8    12    1
    20    12    13    1
    21    13    14   ar
    22    14    15   ar
    23    15    16   ar
    24    16    17   ar
    25    17    18   ar
    26    17    19    1
    27    19    20   ar
    28    20    21   ar
    29    21    22   ar
    30    22    23   ar
    31    22    24    1
    32    24    25    1
    33    25    26    1
    34    26     1    1
    35    11     6   ar
    36    35    31    1
    37    18    13   ar
    38    23    19   ar
    39    12    27    1
@<TRIPOS>MOLECULE
*****
 35 39 0 0 0
SMALL
GASTEIGER

@<TRIPOS>ATOM
      1 C         139.9701  145.9109  160.8343 C.2     1  UNL1        0.0036
      2 C         139.7340  145.2618  162.1658 C.2     1  UNL1        0.0036
      3 C         139.6728  144.2034  163.2269 C.3     1  UNL1        0.1686
      4 O         139.7937  142.8631  163.8894 O.3     1  UNL1       -0.3442
      5 C         140.0821  141.4027  164.0736 C.3     1  UNL1        0.1721
      6 C         140.5034  139.9982  163.7572 C.ar    1  UNL1        0.0425
      7 C         141.0066  138.8192  162.9784 C.ar    1  UNL1        0.0158
      8 C         141.5312  138.0078  161.8310 C.ar    1  UNL1        0.0504
      9 C         141.3460  137.1894  163.1243 C.ar    1  UNL1        0.0178
     10 C         140.8634  137.5353  164.5019 C.ar    1  UNL1        0.0379
     11 C         140.4421  138.9398  164.8182 C.ar    1  UNL1        0.1370
     12 N         142.0138  137.6619  160.4534 N.pl3   1  UNL1       -0.2825
     13 C         142.4320  138.0291  158.7234 C.ar    1  UNL1        0.2208
     14 N         142.9352  136.8501  157.9445 N.ar    1  UNL1       -0.2120
     15 C         143.3176  137.0114  156.5031 C.ar    1  UNL1        0.1035
     16 C         143.1967  138.3516  155.8405 C.ar    1  UNL1        0.0430
     17 C         142.6934  139.5306  156.6194 C.ar    1  UNL1        0.1201
     18 N         142.3111  139.3694  158.0608 N.ar    1  UNL1       -0.2104
     19 C         142.5725  140.8709  155.9568 C.ar    1  UNL1        0.1626
     20 C         142.8248  141.4738  154.6067 C.ar    1  UNL1        0.0419
     21 C         142.4645  142.9284  154.6738 C.ar    1  UNL1        0.0387
     22 C         141.8628  143.7358  156.0891 C.ar    1  UNL1        0.1528
     23 O         142.2841  142.3313  155.7726 O.2     1  UNL1       -0.4537
     24 C         141.3595  144.9148  156.8679 C.3     1  UNL1        0.2064
     25 O         140.8350  145.7263  158.0153 O.3     1  UNL1       -0.3409
     26 C         140.3524  146.0722  159.3928 C.3     1  UNL1        0.1687
     27 H         142.2170  136.7015  160.5280 H       1  UNL1        0.1551
     28 O         139.9596  139.2857  166.1958 O.3     1  UNL1       -0.4742
     29 C         140.9072  139.8800  167.1952 C.3     1  UNL1        0.2226
     30 C         142.3552  139.4887  167.1805 C.3     1  UNL1        0.1200
     31 N         143.2418  139.9371  166.0567 N.3     1  UNL1       -0.2696
     32 C         144.0813  139.0485  165.1876 C.3     1  UNL1        0.0722
     33 C         144.8029  139.9151  164.1986 C.3     1  UNL1        0.0188
     34 C         144.4094  141.3395  164.4564 C.3     1  UNL1        0.0188
     35 C         143.4445  141.3530  165.6049 C.3     1  UNL1        0.0722
@<TRIPOS>BOND
     1     1     2    2
     2     2     3    1
     3     3     4    1
     4     4     5    1
     5     5     6    1
     6     6     7   ar
     7     7     8   ar
     8     8     9   ar
     9     9    10   ar
    10    10    11   ar
    11    11    28    1
    12    28    29    1
    13    29    30    1
    14    30    31    1
    15    31    32    1
    16    32    33    1
    17    33    34    1
    18    34    35    1
    19     8    12    1
    20    12    13    1
    21    13    14   ar
    22    14    15   ar
    23    15    16   ar
    24    16    17   ar
    25    17    18   ar
    26    17    19    1
    27    19    20   ar
    28    20    21   ar
    29    21    22   ar
    30    22    23   ar
    31    22    24    1
    32    24    25    1
    33    25    26    1
    34    26     1    1
    35    11     6   ar
    36    35    31    1
    37    18    13   ar
    38    23    19   ar
    39    12    27    1
@<TRIPOS>MOLECULE
*****
 35 39 0 0 0
SMALL
GASTEIGER

@<TRIPOS>ATOM
      1 C         139.5681  145.3712  156.0880 C.2     1  UNL1        0.0036
      2 C         140.2467  145.6947  157.3861 C.2     1  UNL1        0.0036
      3 C         141.0397  145.5114  158.6461 C.3     1  UNL1        0.1686
      4 O         141.8515  144.8434  159.7160 O.3     1  UNL1       -0.3442
      5 C         142.5842  143.7713  160.4668 C.3     1  UNL1        0.1721
      6 C         143.1494  142.4244  160.8080 C.ar    1  UNL1        0.0425
      7 C         143.4789  140.9652  160.6984 C.ar    1  UNL1        0.0158
      8 C         143.5331  139.5696  160.1513 C.ar    1  UNL1        0.0504
      9 C         144.2798  139.7306  161.4904 C.ar    1  UNL1        0.0178
     10 C         144.5076  140.8943  162.4092 C.ar    1  UNL1        0.0379
     11 C         143.9424  142.2411  162.0680 C.ar    1  UNL1        0.1370
     12 N         143.3052  138.4060  159.2324 N.pl3   1  UNL1       -0.2825
     13 C         142.6455  137.5978  157.7443 C.ar    1  UNL1        0.2208
     14 N         142.9750  136.1386  157.6347 N.ar    1  UNL1       -0.2120
     15 C         142.4928  135.3474  156.4552 C.ar    1  UNL1        0.1035
     16 C         141.6809  136.0154  155.3853 C.ar    1  UNL1        0.0430
     17 C         141.3514  137.4746  155.4949 C.ar    1  UNL1        0.1201
     18 N         141.8337  138.2658  156.6744 N.ar    1  UNL1       -0.2104
     19 C         140.5396  138.1426  154.4249 C.ar    1  UNL1        0.1626
     20 C         139.8773  137.7696  153.1318 C.ar    1  UNL1        0.0419
     21 C         139.2183  138.9977  152.5773 C.ar    1  UNL1        0.0387
     22 C         139.2417  140.5616  153.3329 C.ar    1  UNL1        0.1528
     23 O         139.8069  139.2146  153.6741 O.2     1  UNL1       -0.4537
     24 C         138.9122  142.0208  153.4425 C.3     1  UNL1        0.2064
     25 O         138.8580  143.4164  153.9897 O.3     1  UNL1       -0.3409
     26 C         139.0859  144.5800  154.9085 C.3     1  UNL1        0.1687
     27 H         143.7739  137.6712  159.6903 H       1  UNL1        0.1551
     28 O         144.1702  143.4048  162.9868 O.3     1  UNL1       -0.4742
     29 C         143.1840  143.7041  164.0767 C.3     1  UNL1        0.2226
     30 C         142.2851  144.8999  163.9671 C.3     1  UNL1        0.1200
     31 N         140.7995  144.7152  163.8731 N.3     1  UNL1       -0.2696
     32 C         139.9291  145.1383  162.7271 C.3     1  UNL1        0.0722
     33 C         138.5152  144.7596  163.0545 C.3     1  UNL1        0.0188
     34 C         138.5116  144.1025  164.4029 C.3     1  UNL1        0.0188
     35 C         139.9234  144.0751  164.9088 C.3     1  UNL1        0.0722
@<TRIPOS>BOND
     1     1     2    2
     2     2     3    1
     3     3     4    1
     4     4     5    1
     5     5     6    1
     6     6     7   ar
     7     7     8   ar
     8     8     9   ar
     9     9    10   ar
    10    10    11   ar
    11    11    28    1
    12    28    29    1
    13    29    30    1
    14    30    31    1
    15    31    32    1
    16    32    33    1
    17    33    34    1
    18    34    35    1
    19     8    12    1
    20    12    13    1
    21    13    14   ar
    22    14    15   ar
    23    15    16   ar
    24    16    17   ar
    25    17    18   ar
    26    17    19    1
    27    19    20   ar
    28    20    21   ar
    29    21    22   ar
    30    22    23   ar
    31    22    24    1
    32    24    25    1
    33    25    26    1
    34    26     1    1
    35    11     6   ar
    36    35    31    1
    37    18    13   ar
    38    23    19   ar
    39    12    27    1
@<TRIPOS>MOLECULE
*****
 35 39 0 0 0
SMALL
GASTEIGER

@<TRIPOS>ATOM
      1 C         140.3380  145.7201  158.1323 C.2     1  UNL1        0.0036
      2 C         140.4097  145.4772  159.6108 C.2     1  UNL1        0.0036
      3 C         140.6150  144.7625  160.9135 C.3     1  UNL1        0.1686
      4 O         140.9292  143.6622  161.8833 O.3     1  UNL1       -0.3442
      5 C         141.3143  142.3090  162.4033 C.3     1  UNL1        0.1721
      6 C         141.7239  140.8660  162.4106 C.ar    1  UNL1        0.0425
      7 C         142.1086  139.5074  161.9046 C.ar    1  UNL1        0.0158
      8 C         142.4220  138.3969  160.9461 C.ar    1  UNL1        0.0504
      9 C         142.5432  137.9800  162.4253 C.ar    1  UNL1        0.0178
     10 C         142.3389  138.7083  163.7207 C.ar    1  UNL1        0.0379
     11 C         141.9292  140.1513  163.7133 C.ar    1  UNL1        0.1370
     12 N         142.6264  137.6686  159.6507 N.pl3   1  UNL1       -0.2825
     13 C         142.6635  137.5258  157.8393 C.ar    1  UNL1        0.2208
     14 N         143.0482  136.1672  157.3332 N.ar    1  UNL1       -0.2120
     15 C         143.1187  135.9090  155.8574 C.ar    1  UNL1        0.1035
     16 C         142.8046  137.0093  154.8875 C.ar    1  UNL1        0.0430
     17 C         142.4198  138.3679  155.3936 C.ar    1  UNL1        0.1201
     18 N         142.3493  138.6262  156.8695 N.ar    1  UNL1       -0.2104
     19 C         142.1057  139.4683  154.4238 C.ar    1  UNL1        0.1626
     20 C         142.0481  139.6613  152.9374 C.ar    1  UNL1        0.0419
     21 C         141.6446  141.0810  152.6696 C.ar    1  UNL1        0.0387
     22 C         141.3109  142.2645  153.8965 C.ar    1  UNL1        0.1528
     23 O         141.7206  140.8215  153.9038 O.2     1  UNL1       -0.4537
     24 C         140.9262  143.6231  154.4025 C.3     1  UNL1        0.2064
     25 O         140.6128  144.7336  155.3611 O.3     1  UNL1       -0.3409
     26 C         140.4085  145.4618  156.6564 C.3     1  UNL1        0.1687
     27 H         142.8833  136.7654  159.9462 H       1  UNL1        0.1551
     28 O         141.7249  140.8796  165.0087 O.3     1  UNL1       -0.4742
     29 C         140.5770  140.5132  165.9021 C.3     1  UNL1        0.2226
     30 C         139.1804  140.9161  165.5319 C.3     1  UNL1        0.1200
     31 N         138.9043  142.3103  165.0522 N.3     1  UNL1       -0.2696
     32 C         137.8988  142.7012  164.0101 C.3     1  UNL1        0.0722
     33 C         137.9583  144.1908  163.8443 C.3     1  UNL1        0.0188
     34 C         139.0007  144.7205  164.7839 C.3     1  UNL1        0.0188
     35 C         139.5854  143.5582  165.5304 C.3     1  UNL1        0.0722
@<TRIPOS>BOND
     1     1     2    2
     2     2     3    1
     3     3     4    1
     4     4     5    1
     5     5     6    1
     6     6     7   ar
     7     7     8   ar
     8     8     9   ar
     9     9    10   ar
    10    10    11   ar
    11    11    28    1
    12    28    29    1
    13    29    30    1
    14    30    31    1
    15    31    32    1
    16    32    33    1
    17    33    34    1
    18    34    35    1
    19     8    12    1
    20    12    13    1
    21    13    14   ar
    22    14    15   ar
    23    15    16   ar
    24    16    17   ar
    25    17    18   ar
    26    17    19    1
    27    19    20   ar
    28    20    21   ar
    29    21    22   ar
    30    22    23   ar
    31    22    24    1
    32    24    25    1
    33    25    26    1
    34    26     1    1
    35    11     6   ar
    36    35    31    1
    37    18    13   ar
    38    23    19   ar
    39    12    27    1
@<TRIPOS>MOLECULE
*****
 35 39 0 0 0
SMALL
GASTEIGER

@<TRIPOS>ATOM
      1 C         142.6949  137.5891  159.0546 C.2     1  UNL1        0.0036
      2 C         142.6659  138.0702  160.4751 C.2     1  UNL1        0.0036
      3 C         142.4768  138.9824  161.6507 C.3     1  UNL1        0.1686
      4 O         142.1502  140.2156  162.4398 O.3     1  UNL1       -0.3442
      5 C         141.7257  141.6210  162.7471 C.3     1  UNL1        0.1721
      6 C         141.2544  143.0293  162.5356 C.ar    1  UNL1        0.0425
      7 C         140.7932  144.2704  161.8308 C.ar    1  UNL1        0.0158
      8 C         140.3977  145.1948  160.7176 C.ar    1  UNL1        0.0504
      9 C         140.3118  145.8457  162.1125 C.ar    1  UNL1        0.0178
     10 C         140.5940  145.3496  163.4997 C.ar    1  UNL1        0.0379
     11 C         141.0653  143.9414  163.7112 C.ar    1  UNL1        0.1370
     12 N         140.1156  145.6909  159.3303 N.pl3   1  UNL1       -0.2825
     13 C         140.0072  145.5308  157.5233 C.ar    1  UNL1        0.2208
     14 N         139.5460  146.7719  156.8185 N.ar    1  UNL1       -0.2120
     15 C         139.4113  146.7799  155.3246 C.ar    1  UNL1        0.1035
     16 C         139.7378  145.5467  154.5355 C.ar    1  UNL1        0.0430
     17 C         140.1990  144.3056  155.2403 C.ar    1  UNL1        0.1201
     18 N         140.3337  144.2976  156.7342 N.ar    1  UNL1       -0.2104
     19 C         140.5256  143.0724  154.4513 C.ar    1  UNL1        0.1626
     20 C         140.5380  142.6385  153.0155 C.ar    1  UNL1        0.0419
     21 C         140.9928  141.2099  152.9668 C.ar    1  UNL1        0.0387
     22 C         141.4214  140.2587  154.3555 C.ar    1  UNL1        0.1528
     23 O         140.9501  141.6669  154.1440 O.2     1  UNL1       -0.4537
     24 C         141.8826  139.0175  155.0603 C.3     1  UNL1        0.2064
     25 O         142.2781  138.0931  156.1735 O.3     1  UNL1       -0.3409
     26 C         142.5602  137.5970  157.5607 C.3     1  UNL1        0.1687
     27 H         139.8305  146.6205  159.4847 H       1  UNL1        0.1551
     28 O         141.3474  143.4453  165.0985 O.3     1  UNL1       -0.4742
     29 C         140.2231  142.9586  165.9641 C.3     1  UNL1        0.2226
     30 C         140.4835  141.9282  167.0225 C.3     1  UNL1        0.1200
     31 N         141.4410  142.2248  168.1384 N.3     1  UNL1       -0.2696
     32 C         141.1417  143.0344  169.3652 C.3     1  UNL1        0.0722
     33 C         142.3816  143.0738  170.2084 C.3     1  UNL1        0.0188
     34 C         143.4473  142.2885  169.5028 C.3     1  UNL1        0.0188
     35 C         142.8659  141.7638  168.2234 C.3     1  UNL1        0.0722
@<TRIPOS>BOND
     1     1     2    2
     2     2     3    1
     3     3     4    1
     4     4     5    1
     5     5     6    1
     6     6     7   ar
     7     7     8   ar
     8     8     9   ar
     9     9    10   ar
    10    10    11   ar
    11    11    28    1
    12    28    29    1
    13    29    30    1
    14    30    31    1
    15    31    32    1
    16    32    33    1
    17    33    34    1
    18    34    35    1
    19     8    12    1
    20    12    13    1
    21    13    14   ar
    22    14    15   ar
    23    15    16   ar
    24    16    17   ar
    25    17    18   ar
    26    17    19    1
    27    19    20   ar
    28    20    21   ar
    29    21    22   ar
    30    22    23   ar
    31    22    24    1
    32    24    25    1
    33    25    26    1
    34    26     1    1
    35    11     6   ar
    36    35    31    1
    37    18    13   ar
    38    23    19   ar
    39    12    27    1
@<TRIPOS>MOLECULE
*****
 35 39 0 0 0
SMALL
GASTEIGER

@<TRIPOS>ATOM
      1 C         139.9942  145.9110  160.8111 C.2     1  UNL1        0.0036
      2 C         139.7891  145.2855  162.1590 C.2     1  UNL1        0.0036
      3 C         139.7566  144.2468  163.2407 C.3     1  UNL1        0.1686
      4 O         139.9009  142.9203  163.9258 O.3     1  UNL1       -0.3442
      5 C         140.2043  141.4658  164.1317 C.3     1  UNL1        0.1721
      6 C         140.6305  140.0588  163.8336 C.ar    1  UNL1        0.0425
      7 C         141.1279  138.8691  163.0673 C.ar    1  UNL1        0.0158
      8 C         141.6366  138.0401  161.9254 C.ar    1  UNL1        0.0504
      9 C         141.4828  137.2450  163.2372 C.ar    1  UNL1        0.0178
     10 C         141.0242  137.6133  164.6171 C.ar    1  UNL1        0.0379
     11 C         140.5981  139.0202  164.9152 C.ar    1  UNL1        0.1370
     12 N         142.0952  137.6719  160.5454 N.pl3   1  UNL1       -0.2825
     13 C         142.4770  138.0094  158.8010 C.ar    1  UNL1        0.2208
     14 N         142.9744  136.8197  158.0348 N.ar    1  UNL1       -0.2120
     15 C         143.3276  136.9566  156.5834 C.ar    1  UNL1        0.1035
     16 C         143.1834  138.2832  155.8983 C.ar    1  UNL1        0.0430
     17 C         142.6860  139.4729  156.6645 C.ar    1  UNL1        0.1201
     18 N         142.3328  139.3360  158.1159 N.ar    1  UNL1       -0.2104
     19 C         142.5418  140.7995  155.9794 C.ar    1  UNL1        0.1626
     20 C         142.7632  141.3785  154.6135 C.ar    1  UNL1        0.0419
     21 C         142.3927  142.8314  154.6603 C.ar    1  UNL1        0.0387
     22 C         141.8121  143.6609  156.0717 C.ar    1  UNL1        0.1528
     23 O         142.2383  142.2539  155.7735 O.2     1  UNL1       -0.4537
     24 C         141.3147  144.8506  156.8379 C.3     1  UNL1        0.2064
     25 O         140.8060  145.6796  157.9799 O.3     1  UNL1       -0.3409
     26 C         140.3474  146.0479  159.3598 C.3     1  UNL1        0.1687
     27 H         142.3074  136.7146  160.6341 H       1  UNL1        0.1551
     28 O         140.1395  139.3885  166.2952 O.3     1  UNL1       -0.4742
     29 C         141.1441  139.5871  167.3913 C.3     1  UNL1        0.2226
     30 C         142.0340  140.7945  167.3832 C.3     1  UNL1        0.1200
     31 N         141.9223  141.8157  168.4763 N.3     1  UNL1       -0.2696
     32 C         143.0095  142.2052  169.4334 C.3     1  UNL1        0.0722
     33 C         142.4629  143.2569  170.3527 C.3     1  UNL1        0.0188
     34 C         141.0379  143.5175  169.9637 C.3     1  UNL1        0.0188
     35 C         140.7038  142.6268  168.8039 C.3     1  UNL1        0.0722
@<TRIPOS>BOND
     1     1     2    2
     2     2     3    1
     3     3     4    1
     4     4     5    1
     5     5     6    1
     6     6     7   ar
     7     7     8   ar
     8     8     9   ar
     9     9    10   ar
    10    10    11   ar
    11    11    28    1
    12    28    29    1
    13    29    30    1
    14    30    31    1
    15    31    32    1
    16    32    33    1
    17    33    34    1
    18    34    35    1
    19     8    12    1
    20    12    13    1
    21    13    14   ar
    22    14    15   ar
    23    15    16   ar
    24    16    17   ar
    25    17    18   ar
    26    17    19    1
    27    19    20   ar
    28    20    21   ar
    29    21    22   ar
    30    22    23   ar
    31    22    24    1
    32    24    25    1
    33    25    26    1
    34    26     1    1
    35    11     6   ar
    36    35    31    1
    37    18    13   ar
    38    23    19   ar
    39    12    27    1
@<TRIPOS>MOLECULE
*****
 35 39 0 0 0
SMALL
GASTEIGER

@<TRIPOS>ATOM
      1 C         141.2424  145.9338  157.7585 C.2     1  UNL1        0.0036
      2 C         140.6345  145.6609  159.1024 C.2     1  UNL1        0.0036
      3 C         140.1806  144.9073  160.3173 C.3     1  UNL1        0.1686
      4 O         139.9355  143.7640  161.2567 O.3     1  UNL1       -0.3442
      5 C         139.9286  142.3688  161.8074 C.3     1  UNL1        0.1721
      6 C         140.1610  140.8899  161.9030 C.ar    1  UNL1        0.0425
      7 C         140.6044  139.5059  161.5318 C.ar    1  UNL1        0.0158
      8 C         141.2055  138.3836  160.7387 C.ar    1  UNL1        0.0504
      9 C         140.6256  137.9323  162.0939 C.ar    1  UNL1        0.0178
     10 C         139.9394  138.6576  163.2135 C.ar    1  UNL1        0.0379
     11 C         139.7071  140.1363  163.1179 C.ar    1  UNL1        0.1370
     12 N         141.8917  137.6583  159.6192 N.pl3   1  UNL1       -0.2825
     13 C         142.7084  137.5414  157.9998 C.ar    1  UNL1        0.2208
     14 N         143.1518  136.1574  157.6287 N.ar    1  UNL1       -0.2120
     15 C         143.8404  135.9168  156.3180 C.ar    1  UNL1        0.1035
     16 C         144.0856  137.0601  155.3785 C.ar    1  UNL1        0.0430
     17 C         143.6421  138.4441  155.7497 C.ar    1  UNL1        0.1201
     18 N         142.9536  138.6848  157.0604 N.ar    1  UNL1       -0.2104
     19 C         143.8873  139.5875  154.8102 C.ar    1  UNL1        0.1626
     20 C         144.5068  139.8095  153.4623 C.ar    1  UNL1        0.0419
     21 C         144.3923  141.2687  153.1342 C.ar    1  UNL1        0.0387
     22 C         143.6618  142.4615  154.1640 C.ar    1  UNL1        0.1528
     23 O         143.8941  140.9827  154.2595 O.2     1  UNL1       -0.4537
     24 C         143.2184  143.8456  154.5352 C.3     1  UNL1        0.2064
     25 O         142.6172  144.9680  155.3284 O.3     1  UNL1       -0.3409
     26 C         141.9310  145.6932  156.4478 C.3     1  UNL1        0.1687
     27 H         141.9098  136.7279  159.9404 H       1  UNL1        0.1551
     28 O         139.0208  140.8616  164.2374 O.3     1  UNL1       -0.4742
     29 C         139.7038  141.0104  165.5646 C.3     1  UNL1        0.2226
     30 C         141.1511  141.3999  165.6236 C.3     1  UNL1        0.1200
     31 N         142.2155  140.3475  165.5248 N.3     1  UNL1       -0.2696
     32 C         142.4434  139.2298  166.4988 C.3     1  UNL1        0.0722
     33 C         143.6076  138.4197  166.0105 C.3     1  UNL1        0.0188
     34 C         144.0992  139.0368  164.7347 C.3     1  UNL1        0.0188
     35 C         143.2388  140.2282  164.4345 C.3     1  UNL1        0.0722
@<TRIPOS>BOND
     1     1     2    2
     2     2     3    1
     3     3     4    1
     4     4     5    1
     5     5     6    1
     6     6     7   ar
     7     7     8   ar
     8     8     9   ar
     9     9    10   ar
    10    10    11   ar
    11    11    28    1
    12    28    29    1
    13    29    30    1
    14    30    31    1
    15    31    32    1
    16    32    33    1
    17    33    34    1
    18    34    35    1
    19     8    12    1
    20    12    13    1
    21    13    14   ar
    22    14    15   ar
    23    15    16   ar
    24    16    17   ar
    25    17    18   ar
    26    17    19    1
    27    19    20   ar
    28    20    21   ar
    29    21    22   ar
    30    22    23   ar
    31    22    24    1
    32    24    25    1
    33    25    26    1
    34    26     1    1
    35    11     6   ar
    36    35    31    1
    37    18    13   ar
    38    23    19   ar
    39    12    27    1
@<TRIPOS>MOLECULE
*****
 35 39 0 0 0
SMALL
GASTEIGER

@<TRIPOS>ATOM
      1 C         142.6862  137.6066  158.5657 C.2     1  UNL1        0.0036
      2 C         142.6372  137.9678  160.0208 C.2     1  UNL1        0.0036
      3 C         142.4324  138.7794  161.2655 C.3     1  UNL1        0.1686
      4 O         142.0965  139.9435  162.1498 O.3     1  UNL1       -0.3442
      5 C         141.6699  141.3197  162.5670 C.3     1  UNL1        0.1721
      6 C         141.2041  142.7421  162.4668 C.ar    1  UNL1        0.0425
      7 C         140.7554  144.0389  161.8613 C.ar    1  UNL1        0.0158
      8 C         140.3777  145.0540  160.8235 C.ar    1  UNL1        0.0504
      9 C         140.2726  145.5867  162.2663 C.ar    1  UNL1        0.0178
     10 C         140.5336  144.9760  163.6114 C.ar    1  UNL1        0.0379
     11 C         140.9994  143.5537  163.7115 C.ar    1  UNL1        0.1370
     12 N         140.1167  145.6647  159.4784 N.pl3   1  UNL1       -0.2825
     13 C         140.0345  145.6561  157.6630 C.ar    1  UNL1        0.2208
     14 N         139.5858  146.9529  157.0574 N.ar    1  UNL1       -0.2120
     15 C         139.4729  147.0857  155.5676 C.ar    1  UNL1        0.1035
     16 C         139.8089  145.9216  154.6833 C.ar    1  UNL1        0.0430
     17 C         140.2576  144.6247  155.2888 C.ar    1  UNL1        0.1201
     18 N         140.3705  144.4919  156.7787 N.ar    1  UNL1       -0.2104
     19 C         140.5936  143.4606  154.4045 C.ar    1  UNL1        0.1626
     20 C         140.6263  143.1478  152.9379 C.ar    1  UNL1        0.0419
     21 C         141.0794  141.7269  152.7769 C.ar    1  UNL1        0.0387
     22 C         141.4859  140.6621  154.0875 C.ar    1  UNL1        0.1528
     23 O         141.0202  142.0844  153.9873 O.2     1  UNL1       -0.4537
     24 C         141.9347  139.3652  154.6931 C.3     1  UNL1        0.2064
     25 O         142.3124  138.3501  155.7310 O.3     1  UNL1       -0.3409
     26 C         142.5734  137.7394  157.0759 C.3     1  UNL1        0.1687
     27 H         139.8310  146.5791  159.7056 H       1  UNL1        0.1551
     28 O         141.2603  142.9429  165.0565 O.3     1  UNL1       -0.4742
     29 C         140.1395  142.3004  165.8187 C.3     1  UNL1        0.2226
     30 C         140.4162  141.1295  166.7145 C.3     1  UNL1        0.1200
     31 N         141.2166  139.9678  166.2046 N.3     1  UNL1       -0.2696
     32 C         142.6498  139.6722  166.5340 C.3     1  UNL1        0.0722
     33 C         143.0432  138.4195  165.8088 C.3     1  UNL1        0.0188
     34 C         141.8531  137.9409  165.0311 C.3     1  UNL1        0.0188
     35 C         140.7242  138.8979  165.2758 C.3     1  UNL1        0.0722
@<TRIPOS>BOND
     1     1     2    2
     2     2     3    1
     3     3     4    1
     4     4     5    1
     5     5     6    1
     6     6     7   ar
     7     7     8   ar
     8     8     9   ar
     9     9    10   ar
    10    10    11   ar
    11    11    28    1
    12    28    29    1
    13    29    30    1
    14    30    31    1
    15    31    32    1
    16    32    33    1
    17    33    34    1
    18    34    35    1
    19     8    12    1
    20    12    13    1
    21    13    14   ar
    22    14    15   ar
    23    15    16   ar
    24    16    17   ar
    25    17    18   ar
    26    17    19    1
    27    19    20   ar
    28    20    21   ar
    29    21    22   ar
    30    22    23   ar
    31    22    24    1
    32    24    25    1
    33    25    26    1
    34    26     1    1
    35    11     6   ar
    36    35    31    1
    37    18    13   ar
    38    23    19   ar
    39    12    27    1
@<TRIPOS>MOLECULE
*****
 35 39 0 0 0
SMALL
GASTEIGER

@<TRIPOS>ATOM
      1 C         140.4302  145.9030  158.4958 C.2     1  UNL1        0.0036
      2 C         140.9767  145.1993  157.2891 C.2     1  UNL1        0.0036
      3 C         141.5163  144.1006  156.4221 C.3     1  UNL1        0.1686
      4 O         141.9840  142.7396  155.9993 O.3     1  UNL1       -0.3442
      5 C         142.3233  141.2803  156.0717 C.3     1  UNL1        0.1721
      6 C         142.4934  139.8987  156.6306 C.ar    1  UNL1        0.0425
      7 C         142.4736  138.7616  157.6086 C.ar    1  UNL1        0.0158
      8 C         142.2664  138.0059  158.8877 C.ar    1  UNL1        0.0504
      9 C         142.8334  137.1356  157.7485 C.ar    1  UNL1        0.0178
     10 C         143.2030  137.4185  156.3225 C.ar    1  UNL1        0.0379
     11 C         143.0330  138.8001  155.7637 C.ar    1  UNL1        0.1370
     12 N         141.8968  137.7230  160.3138 N.pl3   1  UNL1       -0.2825
     13 C         141.2783  138.1643  161.9647 C.ar    1  UNL1        0.2208
     14 N         141.2585  137.0272  162.9426 N.ar    1  UNL1       -0.2120
     15 C         140.7711  137.2511  164.3434 C.ar    1  UNL1        0.1035
     16 C         140.3034  138.6122  164.7662 C.ar    1  UNL1        0.0430
     17 C         140.3232  139.7493  163.7882 C.ar    1  UNL1        0.1201
     18 N         140.8106  139.5254  162.3875 N.ar    1  UNL1       -0.2104
     19 C         139.8555  141.1104  164.2110 C.ar    1  UNL1        0.1626
     20 C         139.3120  141.7691  165.4442 C.ar    1  UNL1        0.0419
     21 C         139.0534  143.2115  165.1237 C.ar    1  UNL1        0.0387
     22 C         139.3462  143.9513  163.5797 C.ar    1  UNL1        0.1528
     23 O         139.5162  142.5697  164.1386 O.2     1  UNL1       -0.4537
     24 C         139.3659  145.0884  162.6017 C.3     1  UNL1        0.2064
     25 O         139.5731  145.8441  161.3225 O.3     1  UNL1       -0.3409
     26 C         139.9428  146.1270  159.8966 C.3     1  UNL1        0.1687
     27 H         142.1052  136.7654  160.4075 H       1  UNL1        0.1551
     28 O         143.4026  139.0830  154.3376 O.3     1  UNL1       -0.4742
     29 C         144.8132  139.4548  153.9881 C.3     1  UNL1        0.2226
     30 C         145.2065  140.8992  153.8933 C.3     1  UNL1        0.1200
     31 N         146.1848  141.4759  154.8733 N.3     1  UNL1       -0.2696
     32 C         147.6751  141.5197  154.7093 C.3     1  UNL1        0.0722
     33 C         148.2558  142.1809  155.9240 C.3     1  UNL1        0.0188
     34 C         147.1244  142.5457  156.8388 C.3     1  UNL1        0.0188
     35 C         145.8444  142.1100  156.1894 C.3     1  UNL1        0.0722
@<TRIPOS>BOND
     1     1     2    2
     2     2     3    1
     3     3     4    1
     4     4     5    1
     5     5     6    1
     6     6     7   ar
     7     7     8   ar
     8     8     9   ar
     9     9    10   ar
    10    10    11   ar
    11    11    28    1
    12    28    29    1
    13    29    30    1
    14    30    31    1
    15    31    32    1
    16    32    33    1
    17    33    34    1
    18    34    35    1
    19     8    12    1
    20    12    13    1
    21    13    14   ar
    22    14    15   ar
    23    15    16   ar
    24    16    17   ar
    25    17    18   ar
    26    17    19    1
    27    19    20   ar
    28    20    21   ar
    29    21    22   ar
    30    22    23   ar
    31    22    24    1
    32    24    25    1
    33    25    26    1
    34    26     1    1
    35    11     6   ar
    36    35    31    1
    37    18    13   ar
    38    23    19   ar
    39    12    27    1
