@<TRIPOS>MOLECULE
*****
 31 34 0 0 0
SMALL
GASTEIGER

@<TRIPOS>ATOM
      1 N         140.9146  144.1158  159.8629 N.am    1  UNL1       -0.2756
      2 C         141.5107  142.7497  160.0318 C.3     1  UNL1        0.1151
      3 C         140.2670  144.8010  161.0295 C.2     1  UNL1        0.2505
      4 O         139.6709  146.1670  160.8606 O.2     1  UNL1       -0.2699
      5 C         140.1032  147.8849  154.1721 C.ar    1  UNL1       -0.0065
      6 C         139.0344  148.2498  155.1592 C.ar    1  UNL1       -0.0033
      7 C         138.9829  147.5689  156.4948 C.ar    1  UNL1       -0.0048
      8 C         140.0002  146.5232  156.8433 C.ar    1  UNL1       -0.0245
      9 C         141.0690  146.1584  155.8561 C.ar    1  UNL1       -0.0263
     10 C         141.1205  146.8392  154.5205 C.ar    1  UNL1       -0.0075
     11 C         142.0864  145.1126  156.2045 C.3     1  UNL1        0.0277
     12 C         142.0349  144.4317  157.5401 C.3     1  UNL1        0.0248
     13 C         140.9661  144.7966  158.5273 C.3     1  UNL1        0.0804
     14 C         139.9487  145.8424  158.1788 C.3     1  UNL1        0.0458
     15 C         140.1546  148.5658  152.8365 C.3     1  UNL1        0.0992
     16 C         139.2460  150.8398  151.9687 C.3     1  UNL1        0.0899
     17 N         140.2542  150.0605  152.7600 N.3     1  UNL1       -0.2665
     18 C         141.3621  150.7759  153.4747 C.3     1  UNL1        0.0899
     19 C         140.2155  144.1201  162.3651 C.ar    1  UNL1        0.0727
     20 C         141.3749  144.2337  163.3100 C.ar    1  UNL1        0.0076
     21 C         141.3235  143.5528  164.6456 C.ar    1  UNL1        0.0193
     22 C         140.1126  142.7584  165.0363 C.ar    1  UNL1        0.0813
     23 N         138.9532  142.6449  164.0914 N.ar    1  UNL1       -0.2437
     24 C         139.0047  143.3257  162.7558 C.ar    1  UNL1        0.1033
     25 C         140.0611  142.0776  166.3719 C.ar    1  UNL1        0.0177
     26 C         139.5414  140.6746  166.4790 C.ar    1  UNL1        0.0024
     27 C         139.4899  139.9937  167.8146 C.ar    1  UNL1        0.0114
     28 C         139.9582  140.7158  169.0430 C.ar    1  UNL1        0.0577
     29 CL        139.9067  140.0350  170.3786 Cl      1  UNL1       -0.0822
     30 C         140.4779  142.1188  168.9359 C.ar    1  UNL1        0.0114
     31 C         140.5294  142.7997  167.6004 C.ar    1  UNL1        0.0024
@<TRIPOS>BOND
     1    16    17    1
     2    17    18    1
     3    17    15    1
     4    15     5    1
     5     5     6   ar
     6     6     7   ar
     7     7     8   ar
     8     8     9   ar
     9     9    10   ar
    10     9    11    1
    11    11    12    1
    12    12    13    1
    13    13     1    1
    14     1     2    1
    15     1     3   am
    16     3     4    2
    17     3    19    1
    18    19    20   ar
    19    20    21   ar
    20    21    22   ar
    21    22    25    1
    22    25    26   ar
    23    26    27   ar
    24    27    28   ar
    25    28    29    1
    26    28    30   ar
    27    30    31   ar
    28    22    23   ar
    29    23    24   ar
    30    13    14    1
    31    10     5   ar
    32    24    19   ar
    33    14     8    1
    34    31    25   ar
@<TRIPOS>MOLECULE
*****
 31 34 0 0 0
SMALL
GASTEIGER

@<TRIPOS>ATOM
      1 N         141.6814  139.0732  160.2438 N.am    1  UNL1       -0.2756
      2 C         142.7017  140.1654  160.3713 C.3     1  UNL1        0.1151
      3 C         140.8502  138.6812  161.4292 C.2     1  UNL1        0.2505
      4 O         139.8300  137.5890  161.3017 O.2     1  UNL1       -0.2699
      5 C         142.0708  135.5371  154.3621 C.ar    1  UNL1       -0.0065
      6 C         143.4054  135.5015  155.0457 C.ar    1  UNL1       -0.0033
      7 C         143.5945  136.2016  156.3587 C.ar    1  UNL1       -0.0048
      8 C         142.4489  136.9373  156.9882 C.ar    1  UNL1       -0.0245
      9 C         141.1142  136.9730  156.3046 C.ar    1  UNL1       -0.0263
     10 C         140.9252  136.2729  154.9915 C.ar    1  UNL1       -0.0075
     11 C         139.9685  137.7087  156.9340 C.3     1  UNL1        0.0277
     12 C         140.1576  138.4088  158.2471 C.3     1  UNL1        0.0248
     13 C         141.4923  138.3731  158.9307 C.3     1  UNL1        0.0804
     14 C         142.6379  137.6374  158.3013 C.3     1  UNL1        0.0458
     15 C         141.8817  134.8371  153.0490 C.3     1  UNL1        0.0992
     16 C         142.6286  132.4340  153.6953 C.3     1  UNL1        0.0899
     17 N         141.6587  133.3542  153.0150 N.3     1  UNL1       -0.2665
     18 C         140.4658  132.7913  152.3006 C.3     1  UNL1        0.0899
     19 C         141.0393  139.3812  162.7423 C.ar    1  UNL1        0.0727
     20 C         142.0208  138.8468  163.7427 C.ar    1  UNL1        0.0076
     21 C         142.2099  139.5469  165.0558 C.ar    1  UNL1        0.0193
     22 C         141.4174  140.7814  165.3684 C.ar    1  UNL1        0.0813
     23 N         140.4358  141.3159  164.3680 N.ar    1  UNL1       -0.2437
     24 C         140.2468  140.6158  163.0550 C.ar    1  UNL1        0.1033
     25 C         141.6064  141.4815  166.6815 C.ar    1  UNL1        0.0177
     26 C         142.9630  141.5245  167.3200 C.ar    1  UNL1        0.0024
     27 C         143.1521  142.2246  168.6331 C.ar    1  UNL1        0.0114
     28 C         141.9845  142.8817  169.3076 C.ar    1  UNL1        0.0577
     29 CL        142.1736  143.5818  170.6207 Cl      1  UNL1       -0.0822
     30 C         140.6279  142.8387  168.6691 C.ar    1  UNL1        0.0114
     31 C         140.4389  142.1386  167.3560 C.ar    1  UNL1        0.0024
@<TRIPOS>BOND
     1    16    17    1
     2    17    18    1
     3    17    15    1
     4    15     5    1
     5     5     6   ar
     6     6     7   ar
     7     7     8   ar
     8     8     9   ar
     9     9    10   ar
    10     9    11    1
    11    11    12    1
    12    12    13    1
    13    13     1    1
    14     1     2    1
    15     1     3   am
    16     3     4    2
    17     3    19    1
    18    19    20   ar
    19    20    21   ar
    20    21    22   ar
    21    22    25    1
    22    25    26   ar
    23    26    27   ar
    24    27    28   ar
    25    28    29    1
    26    28    30   ar
    27    30    31   ar
    28    22    23   ar
    29    23    24   ar
    30    13    14    1
    31    10     5   ar
    32    24    19   ar
    33    14     8    1
    34    31    25   ar
@<TRIPOS>MOLECULE
*****
 31 34 0 0 0
SMALL
GASTEIGER

@<TRIPOS>ATOM
      1 N         143.5382  141.1104  160.2441 N.am    1  UNL1       -0.2756
      2 C         142.8249  142.3159  160.7809 C.3     1  UNL1        0.1151
      3 C         143.7303  139.9035  161.1138 C.2     1  UNL1        0.2505
      4 O         144.4435  138.6982  160.5770 O.2     1  UNL1       -0.2699
      5 C         146.8385  141.9235  154.2694 C.ar    1  UNL1       -0.0065
      6 C         147.5327  142.7290  155.3274 C.ar    1  UNL1       -0.0033
      7 C         147.0114  142.7275  156.7339 C.ar    1  UNL1       -0.0048
      8 C         145.7961  141.9205  157.0825 C.ar    1  UNL1       -0.0245
      9 C         145.1019  141.1150  156.0246 C.ar    1  UNL1       -0.0263
     10 C         145.6232  141.1165  154.6180 C.ar    1  UNL1       -0.0075
     11 C         143.8865  140.3079  156.3731 C.3     1  UNL1        0.0277
     12 C         143.3653  140.3064  157.7796 C.3     1  UNL1        0.0248
     13 C         144.0595  141.1119  158.8376 C.3     1  UNL1        0.0804
     14 C         145.2748  141.9190  158.4890 C.3     1  UNL1        0.0458
     15 C         147.3598  141.9250  152.8629 C.3     1  UNL1        0.0992
     16 C         149.4226  143.4865  152.6256 C.3     1  UNL1        0.0899
     17 N         148.8260  142.1104  152.6066 N.3     1  UNL1       -0.2665
     18 C         149.6958  140.9196  152.3314 C.3     1  UNL1        0.0899
     19 C         143.2090  139.9020  162.5204 C.ar    1  UNL1        0.0727
     20 C         144.1444  140.1470  163.6671 C.ar    1  UNL1        0.0076
     21 C         143.6231  140.1455  165.0736 C.ar    1  UNL1        0.0193
     22 C         142.1665  139.8990  165.3334 C.ar    1  UNL1        0.0813
     23 N         141.2312  139.6541  164.1867 N.ar    1  UNL1       -0.2437
     24 C         141.7524  139.6556  162.7801 C.ar    1  UNL1        0.1033
     25 C         141.6453  139.8975  166.7399 C.ar    1  UNL1        0.0177
     26 C         142.5864  139.6844  167.8883 C.ar    1  UNL1        0.0024
     27 C         142.0652  139.6829  169.2948 C.ar    1  UNL1        0.0114
     28 C         140.6028  139.8945  169.5530 C.ar    1  UNL1        0.0577
     29 CL        140.0816  139.8930  170.9595 Cl      1  UNL1       -0.0822
     30 C         139.6617  140.1076  168.4046 C.ar    1  UNL1        0.0114
     31 C         140.1829  140.1091  166.9981 C.ar    1  UNL1        0.0024
@<TRIPOS>BOND
     1    16    17    1
     2    17    18    1
     3    17    15    1
     4    15     5    1
     5     5     6   ar
     6     6     7   ar
     7     7     8   ar
     8     8     9   ar
     9     9    10   ar
    10     9    11    1
    11    11    12    1
    12    12    13    1
    13    13     1    1
    14     1     2    1
    15     1     3   am
    16     3     4    2
    17     3    19    1
    18    19    20   ar
    19    20    21   ar
    20    21    22   ar
    21    22    25    1
    22    25    26   ar
    23    26    27   ar
    24    27    28   ar
    25    28    29    1
    26    28    30   ar
    27    30    31   ar
    28    22    23   ar
    29    23    24   ar
    30    13    14    1
    31    10     5   ar
    32    24    19   ar
    33    14     8    1
    34    31    25   ar
@<TRIPOS>MOLECULE
*****
 31 34 0 0 0
SMALL
GASTEIGER

@<TRIPOS>ATOM
      1 N         140.4618  139.2457  161.7453 N.am    1  UNL1       -0.2756
      2 C         139.7100  137.9483  161.7054 C.3     1  UNL1        0.1151
      3 C         141.2827  139.6734  160.5650 C.2     1  UNL1        0.2505
      4 O         142.0345  140.9707  160.6049 O.2     1  UNL1       -0.2699
      5 C         140.8890  142.3082  167.8844 C.ar    1  UNL1       -0.0065
      6 C         141.6612  141.0228  167.9221 C.ar    1  UNL1       -0.0033
      7 C         141.7302  140.1532  166.7018 C.ar    1  UNL1       -0.0048
      8 C         141.0270  140.5690  165.4438 C.ar    1  UNL1       -0.0245
      9 C         140.2548  141.8544  165.4061 C.ar    1  UNL1       -0.0263
     10 C         140.1858  142.7240  166.6264 C.ar    1  UNL1       -0.0075
     11 C         139.5516  142.2703  164.1481 C.3     1  UNL1        0.0277
     12 C         139.6206  141.4007  162.9278 C.3     1  UNL1        0.0248
     13 C         140.3928  140.1152  162.9656 C.3     1  UNL1        0.0804
     14 C         141.0960  139.6994  164.2236 C.3     1  UNL1        0.0458
     15 C         140.8200  143.1778  169.1047 C.3     1  UNL1        0.0992
     16 C         142.9175  143.2043  170.6376 C.3     1  UNL1        0.0899
     17 N         141.5121  142.7555  170.3666 N.3     1  UNL1       -0.2665
     18 C         140.7988  141.8843  171.3578 C.3     1  UNL1        0.0899
     19 C         141.3517  138.8038  159.3447 C.ar    1  UNL1        0.0727
     20 C         140.1786  138.7240  158.4133 C.ar    1  UNL1        0.0076
     21 C         140.2476  137.8544  157.1931 C.ar    1  UNL1        0.0193
     22 C         141.4897  137.0647  156.9041 C.ar    1  UNL1        0.0813
     23 N         142.6628  137.1445  157.8355 N.ar    1  UNL1       -0.2437
     24 C         142.5938  138.0141  159.0558 C.ar    1  UNL1        0.1033
     25 C         141.5587  136.1951  155.6839 C.ar    1  UNL1        0.0177
     26 C         142.4428  134.9834  155.6754 C.ar    1  UNL1        0.0024
     27 C         142.5118  134.1138  154.4551 C.ar    1  UNL1        0.0114
     28 C         141.6967  134.4559  153.2433 C.ar    1  UNL1        0.0577
     29 CL        141.7657  133.5864  152.0230 Cl      1  UNL1       -0.0822
     30 C         140.8126  135.6676  153.2518 C.ar    1  UNL1        0.0114
     31 C         140.7436  136.5372  154.4721 C.ar    1  UNL1        0.0024
@<TRIPOS>BOND
     1    16    17    1
     2    17    18    1
     3    17    15    1
     4    15     5    1
     5     5     6   ar
     6     6     7   ar
     7     7     8   ar
     8     8     9   ar
     9     9    10   ar
    10     9    11    1
    11    11    12    1
    12    12    13    1
    13    13     1    1
    14     1     2    1
    15     1     3   am
    16     3     4    2
    17     3    19    1
    18    19    20   ar
    19    20    21   ar
    20    21    22   ar
    21    22    25    1
    22    25    26   ar
    23    26    27   ar
    24    27    28   ar
    25    28    29    1
    26    28    30   ar
    27    30    31   ar
    28    22    23   ar
    29    23    24   ar
    30    13    14    1
    31    10     5   ar
    32    24    19   ar
    33    14     8    1
    34    31    25   ar
@<TRIPOS>MOLECULE
*****
 31 34 0 0 0
SMALL
GASTEIGER

@<TRIPOS>ATOM
      1 N         143.1833  140.2807  161.8405 N.am    1  UNL1       -0.2756
      2 C         144.3421  139.3443  161.6665 C.3     1  UNL1        0.1151
      3 C         142.8440  141.2633  160.7591 C.2     1  UNL1        0.2505
      4 O         141.6852  142.1996  160.9331 O.2     1  UNL1       -0.2699
      5 C         140.3865  140.7957  168.0985 C.ar    1  UNL1       -0.0065
      6 C         141.6877  141.5417  168.0793 C.ar    1  UNL1       -0.0033
      7 C         142.5073  141.5879  166.8238 C.ar    1  UNL1       -0.0048
      8 C         142.0257  140.8881  165.5876 C.ar    1  UNL1       -0.0245
      9 C         140.7245  140.1421  165.6068 C.ar    1  UNL1       -0.0263
     10 C         139.9050  140.0959  166.8623 C.ar    1  UNL1       -0.0075
     11 C         140.2429  139.4422  164.3706 C.3     1  UNL1        0.0277
     12 C         141.0625  139.4884  163.1151 C.3     1  UNL1        0.0248
     13 C         142.3637  140.2345  163.0959 C.3     1  UNL1        0.0804
     14 C         142.8453  140.9343  164.3322 C.3     1  UNL1        0.0458
     15 C         139.5670  140.7495  169.3540 C.3     1  UNL1        0.0992
     16 C         140.9284  140.8513  171.5644 C.3     1  UNL1        0.0899
     17 N         140.0148  141.5047  170.5702 N.3     1  UNL1       -0.2665
     18 C         139.5490  142.9132  170.7922 C.3     1  UNL1        0.0899
     19 C         143.6636  141.3095  159.5036 C.ar    1  UNL1        0.0727
     20 C         144.5826  142.4675  159.2501 C.ar    1  UNL1        0.0076
     21 C         145.4021  142.5137  157.9946 C.ar    1  UNL1        0.0193
     22 C         145.3027  141.4019  156.9927 C.ar    1  UNL1        0.0813
     23 N         144.3838  140.2438  157.2463 N.ar    1  UNL1       -0.2437
     24 C         143.5642  140.1976  158.5017 C.ar    1  UNL1        0.1033
     25 C         146.1223  141.4481  155.7373 C.ar    1  UNL1        0.0177
     26 C         145.5358  140.9735  154.4408 C.ar    1  UNL1        0.0024
     27 C         146.3554  141.0197  153.1854 C.ar    1  UNL1        0.0114
     28 C         147.7614  141.5405  153.2264 C.ar    1  UNL1        0.0577
     29 CL        148.5810  141.5867  151.9709 Cl      1  UNL1       -0.0822
     30 C         148.3479  142.0150  154.5228 C.ar    1  UNL1        0.0114
     31 C         147.5284  141.9688  155.7782 C.ar    1  UNL1        0.0024
@<TRIPOS>BOND
     1    16    17    1
     2    17    18    1
     3    17    15    1
     4    15     5    1
     5     5     6   ar
     6     6     7   ar
     7     7     8   ar
     8     8     9   ar
     9     9    10   ar
    10     9    11    1
    11    11    12    1
    12    12    13    1
    13    13     1    1
    14     1     2    1
    15     1     3   am
    16     3     4    2
    17     3    19    1
    18    19    20   ar
    19    20    21   ar
    20    21    22   ar
    21    22    25    1
    22    25    26   ar
    23    26    27   ar
    24    27    28   ar
    25    28    29    1
    26    28    30   ar
    27    30    31   ar
    28    22    23   ar
    29    23    24   ar
    30    13    14    1
    31    10     5   ar
    32    24    19   ar
    33    14     8    1
    34    31    25   ar
@<TRIPOS>MOLECULE
*****
 31 34 0 0 0
SMALL
GASTEIGER

@<TRIPOS>ATOM
      1 N         143.3659  140.9591  158.1418 N.am    1  UNL1       -0.2756
      2 C         142.9698  142.1602  158.9485 C.3     1  UNL1        0.1151
      3 C         142.9545  139.5873  158.5877 C.2     1  UNL1        0.2505
      4 O         143.3506  138.3864  157.7810 O.2     1  UNL1       -0.2699
      5 C         148.0422  142.0318  153.2192 C.ar    1  UNL1       -0.0065
      6 C         148.6805  142.2502  154.5589 C.ar    1  UNL1       -0.0033
      7 C         147.8730  142.0794  155.8113 C.ar    1  UNL1       -0.0048
      8 C         146.4270  141.6901  155.7241 C.ar    1  UNL1       -0.0245
      9 C         145.7887  141.4717  154.3845 C.ar    1  UNL1       -0.0263
     10 C         146.5962  141.6425  153.1320 C.ar    1  UNL1       -0.0075
     11 C         144.3426  141.0823  154.2972 C.3     1  UNL1        0.0277
     12 C         143.5351  140.9115  155.5497 C.3     1  UNL1        0.0248
     13 C         144.1735  141.1300  156.8894 C.3     1  UNL1        0.0804
     14 C         145.6195  141.5193  156.9766 C.3     1  UNL1        0.0458
     15 C         148.8497  142.2026  151.9668 C.3     1  UNL1        0.0992
     16 C         151.2506  143.1932  152.0359 C.3     1  UNL1        0.0899
     17 N         150.3362  142.0046  152.0000 N.3     1  UNL1       -0.2665
     18 C         150.9084  140.6180  151.9973 C.3     1  UNL1        0.0899
     19 C         142.1469  139.4165  159.8401 C.ar    1  UNL1        0.0727
     20 C         140.6518  139.5262  159.7893 C.ar    1  UNL1        0.0076
     21 C         139.8443  139.3554  161.0418 C.ar    1  UNL1        0.0193
     22 C         140.5318  139.0748  162.3450 C.ar    1  UNL1        0.0813
     23 N         142.0269  138.9651  162.3958 N.ar    1  UNL1       -0.2437
     24 C         142.8344  139.1359  161.1434 C.ar    1  UNL1        0.1033
     25 C         139.7242  138.9040  163.5975 C.ar    1  UNL1        0.0177
     26 C         139.0194  140.0820  164.2019 C.ar    1  UNL1        0.0024
     27 C         138.2118  139.9112  165.4544 C.ar    1  UNL1        0.0114
     28 C         138.1091  138.5623  166.1024 C.ar    1  UNL1        0.0577
     29 CL        137.3015  138.3915  167.3548 Cl      1  UNL1       -0.0822
     30 C         138.8139  137.3843  165.4979 C.ar    1  UNL1        0.0114
     31 C         139.6214  137.5551  164.2455 C.ar    1  UNL1        0.0024
@<TRIPOS>BOND
     1    16    17    1
     2    17    18    1
     3    17    15    1
     4    15     5    1
     5     5     6   ar
     6     6     7   ar
     7     7     8   ar
     8     8     9   ar
     9     9    10   ar
    10     9    11    1
    11    11    12    1
    12    12    13    1
    13    13     1    1
    14     1     2    1
    15     1     3   am
    16     3     4    2
    17     3    19    1
    18    19    20   ar
    19    20    21   ar
    20    21    22   ar
    21    22    25    1
    22    25    26   ar
    23    26    27   ar
    24    27    28   ar
    25    28    29    1
    26    28    30   ar
    27    30    31   ar
    28    22    23   ar
    29    23    24   ar
    30    13    14    1
    31    10     5   ar
    32    24    19   ar
    33    14     8    1
    34    31    25   ar
@<TRIPOS>MOLECULE
*****
 31 34 0 0 0
SMALL
GASTEIGER

@<TRIPOS>ATOM
      1 N         141.4514  137.4477  157.2209 N.am    1  UNL1       -0.2756
      2 C         142.6198  137.8852  158.0537 C.3     1  UNL1        0.1151
      3 C         140.0865  138.0083  157.4905 C.2     1  UNL1        0.2505
      4 O         138.9181  137.5707  156.6578 O.2     1  UNL1       -0.2699
      5 C         142.8562  132.1215  153.1090 C.ar    1  UNL1       -0.0065
      6 C         143.2782  131.7859  154.5087 C.ar    1  UNL1       -0.0033
      7 C         143.0816  132.7840  155.6110 C.ar    1  UNL1       -0.0048
      8 C         142.4631  134.1177  155.3137 C.ar    1  UNL1       -0.0245
      9 C         142.0411  134.4534  153.9139 C.ar    1  UNL1       -0.0263
     10 C         142.2377  133.4552  152.8116 C.ar    1  UNL1       -0.0075
     11 C         141.4225  135.7872  153.6165 C.3     1  UNL1        0.0277
     12 C         141.2260  136.7853  154.7188 C.3     1  UNL1        0.0248
     13 C         141.6480  136.4496  156.1186 C.3     1  UNL1        0.0804
     14 C         142.2665  135.1158  156.4160 C.3     1  UNL1        0.0458
     15 C         143.0528  131.1234  152.0067 C.3     1  UNL1        0.0992
     16 C         141.9469  128.8578  152.6344 C.3     1  UNL1        0.0899
     17 N         143.1748  129.6637  152.3296 N.3     1  UNL1       -0.2665
     18 C         144.5247  129.0098  152.3477 C.3     1  UNL1        0.0899
     19 C         139.8899  139.0064  158.5928 C.ar    1  UNL1        0.0727
     20 C         140.0114  140.4737  158.3065 C.ar    1  UNL1        0.0076
     21 C         139.8148  141.4719  159.4088 C.ar    1  UNL1        0.0193
     22 C         139.4968  141.0026  160.7975 C.ar    1  UNL1        0.0813
     23 N         139.3753  139.5353  161.0839 N.ar    1  UNL1       -0.2437
     24 C         139.5718  138.5372  159.9816 C.ar    1  UNL1        0.1033
     25 C         139.3002  142.0007  161.8998 C.ar    1  UNL1        0.0177
     26 C         140.3731  142.2033  162.9283 C.ar    1  UNL1        0.0024
     27 C         140.1765  143.2014  164.0306 C.ar    1  UNL1        0.0114
     28 C         138.9071  143.9970  164.1045 C.ar    1  UNL1        0.0577
     29 CL        138.7105  144.9951  165.2068 Cl      1  UNL1       -0.0822
     30 C         137.8341  143.7944  163.0760 C.ar    1  UNL1        0.0114
     31 C         138.0307  142.7963  161.9737 C.ar    1  UNL1        0.0024
@<TRIPOS>BOND
     1    16    17    1
     2    17    18    1
     3    17    15    1
     4    15     5    1
     5     5     6   ar
     6     6     7   ar
     7     7     8   ar
     8     8     9   ar
     9     9    10   ar
    10     9    11    1
    11    11    12    1
    12    12    13    1
    13    13     1    1
    14     1     2    1
    15     1     3   am
    16     3     4    2
    17     3    19    1
    18    19    20   ar
    19    20    21   ar
    20    21    22   ar
    21    22    25    1
    22    25    26   ar
    23    26    27   ar
    24    27    28   ar
    25    28    29    1
    26    28    30   ar
    27    30    31   ar
    28    22    23   ar
    29    23    24   ar
    30    13    14    1
    31    10     5   ar
    32    24    19   ar
    33    14     8    1
    34    31    25   ar
@<TRIPOS>MOLECULE
*****
 31 34 0 0 0
SMALL
GASTEIGER

@<TRIPOS>ATOM
      1 N         140.6432  141.5237  156.0898 N.am    1  UNL1       -0.2756
      2 C         140.8420  142.2776  157.3713 C.3     1  UNL1        0.1151
      3 C         140.2108  142.2509  154.8512 C.2     1  UNL1        0.2505
      4 O         140.0120  141.4969  153.5698 O.2     1  UNL1       -0.2699
      5 C         142.9493  135.0643  155.6345 C.ar    1  UNL1       -0.0065
      6 C         144.0880  136.0104  155.3929 C.ar    1  UNL1       -0.0033
      7 C         143.8545  137.4914  155.4357 C.ar    1  UNL1       -0.0048
      8 C         142.4823  138.0265  155.7200 C.ar    1  UNL1       -0.0245
      9 C         141.3437  137.0804  155.9616 C.ar    1  UNL1       -0.0263
     10 C         141.5772  135.5993  155.9188 C.ar    1  UNL1       -0.0075
     11 C         139.9714  137.6154  156.2459 C.3     1  UNL1        0.0277
     12 C         139.7379  139.0965  156.2887 C.3     1  UNL1        0.0248
     13 C         140.8767  140.0426  156.0471 C.3     1  UNL1        0.0804
     14 C         142.2488  139.5076  155.7628 C.3     1  UNL1        0.0458
     15 C         143.1828  133.5832  155.5918 C.3     1  UNL1        0.0992
     16 C         143.1101  131.3827  156.9710 C.3     1  UNL1        0.0899
     17 N         143.4751  132.8332  156.8574 N.3     1  UNL1       -0.2665
     18 C         144.1324  133.5336  158.0096 C.3     1  UNL1        0.0899
     19 C         139.9773  143.7320  154.8939 C.ar    1  UNL1        0.0727
     20 C         138.6170  144.2674  155.2296 C.ar    1  UNL1        0.0076
     21 C         138.3835  145.7485  155.2723 C.ar    1  UNL1        0.0193
     22 C         139.5103  146.6942  154.9794 C.ar    1  UNL1        0.0813
     23 N         140.8707  146.1588  154.6438 N.ar    1  UNL1       -0.2437
     24 C         141.1042  144.6777  154.6011 C.ar    1  UNL1        0.1033
     25 C         139.2768  148.1753  155.0222 C.ar    1  UNL1        0.0177
     26 C         138.5558  148.7876  156.1863 C.ar    1  UNL1        0.0024
     27 C         138.3223  150.2687  156.2290 C.ar    1  UNL1        0.0114
     28 C         138.8098  151.1375  155.1077 C.ar    1  UNL1        0.0577
     29 CL        138.5763  152.6186  155.1504 Cl      1  UNL1       -0.0822
     30 C         139.5308  150.5252  153.9436 C.ar    1  UNL1        0.0114
     31 C         139.7643  149.0441  153.9008 C.ar    1  UNL1        0.0024
@<TRIPOS>BOND
     1    16    17    1
     2    17    18    1
     3    17    15    1
     4    15     5    1
     5     5     6   ar
     6     6     7   ar
     7     7     8   ar
     8     8     9   ar
     9     9    10   ar
    10     9    11    1
    11    11    12    1
    12    12    13    1
    13    13     1    1
    14     1     2    1
    15     1     3   am
    16     3     4    2
    17     3    19    1
    18    19    20   ar
    19    20    21   ar
    20    21    22   ar
    21    22    25    1
    22    25    26   ar
    23    26    27   ar
    24    27    28   ar
    25    28    29    1
    26    28    30   ar
    27    30    31   ar
    28    22    23   ar
    29    23    24   ar
    30    13    14    1
    31    10     5   ar
    32    24    19   ar
    33    14     8    1
    34    31    25   ar
@<TRIPOS>MOLECULE
*****
 31 34 0 0 0
SMALL
GASTEIGER

@<TRIPOS>ATOM
      1 N         142.2943  141.6303  155.6245 N.am    1  UNL1       -0.2756
      2 C         142.5930  142.4637  156.8355 C.3     1  UNL1        0.1151
      3 C         141.5435  142.2261  154.4707 C.2     1  UNL1        0.2505
      4 O         141.2448  141.3928  153.2598 O.2     1  UNL1       -0.2699
      5 C         143.1100  134.8052  155.5796 C.ar    1  UNL1       -0.0065
      6 C         141.6646  135.1254  155.8205 C.ar    1  UNL1       -0.0033
      7 C         141.2123  136.5544  155.8776 C.ar    1  UNL1       -0.0048
      8 C         142.2056  137.6633  155.6939 C.ar    1  UNL1       -0.0245
      9 C         143.6510  137.3432  155.4530 C.ar    1  UNL1       -0.0263
     10 C         144.1033  135.9141  155.3959 C.ar    1  UNL1       -0.0075
     11 C         144.6444  138.4521  155.2693 C.3     1  UNL1        0.0277
     12 C         144.1921  139.8811  155.3264 C.3     1  UNL1        0.0248
     13 C         142.7466  140.2013  155.5673 C.3     1  UNL1        0.0804
     14 C         141.7533  139.0924  155.7511 C.3     1  UNL1        0.0458
     15 C         143.5623  133.3761  155.5225 C.3     1  UNL1        0.0992
     16 C         143.0553  131.2557  156.9355 C.3     1  UNL1        0.0899
     17 N         143.7252  132.5898  156.7894 N.3     1  UNL1       -0.2665
     18 C         144.5581  133.1376  157.9103 C.3     1  UNL1        0.0899
     19 C         141.0912  143.6552  154.5279 C.ar    1  UNL1        0.0727
     20 C         139.8172  144.0109  155.2350 C.ar    1  UNL1        0.0076
     21 C         139.3649  145.4400  155.2922 C.ar    1  UNL1        0.0193
     22 C         140.1868  146.5133  154.6422 C.ar    1  UNL1        0.0813
     23 N         141.4608  146.1575  153.9350 N.ar    1  UNL1       -0.2437
     24 C         141.9131  144.7285  153.8778 C.ar    1  UNL1        0.1033
     25 C         139.7345  147.9424  154.6993 C.ar    1  UNL1        0.0177
     26 C         138.8904  148.4166  155.8449 C.ar    1  UNL1        0.0024
     27 C         138.4381  149.8457  155.9020 C.ar    1  UNL1        0.0114
     28 C         138.8301  150.8005  154.8136 C.ar    1  UNL1        0.0577
     29 CL        138.3778  152.2295  154.8707 Cl      1  UNL1       -0.0822
     30 C         139.6743  150.3262  153.6680 C.ar    1  UNL1        0.0114
     31 C         140.1265  148.8971  153.6109 C.ar    1  UNL1        0.0024
@<TRIPOS>BOND
     1    16    17    1
     2    17    18    1
     3    17    15    1
     4    15     5    1
     5     5     6   ar
     6     6     7   ar
     7     7     8   ar
     8     8     9   ar
     9     9    10   ar
    10     9    11    1
    11    11    12    1
    12    12    13    1
    13    13     1    1
    14     1     2    1
    15     1     3   am
    16     3     4    2
    17     3    19    1
    18    19    20   ar
    19    20    21   ar
    20    21    22   ar
    21    22    25    1
    22    25    26   ar
    23    26    27   ar
    24    27    28   ar
    25    28    29    1
    26    28    30   ar
    27    30    31   ar
    28    22    23   ar
    29    23    24   ar
    30    13    14    1
    31    10     5   ar
    32    24    19   ar
    33    14     8    1
    34    31    25   ar
