@<TRIPOS>MOLECULE
*****
 29 34 0 0 0
SMALL
GASTEIGER

@<TRIPOS>ATOM
      1 N         138.6166  145.2897  165.7912 N.pl3   1  UNL1       -0.3133
      2 C         138.3969  144.0741  164.9404 C.2     1  UNL1        0.2770
      3 N         139.0025  142.7201  165.1640 N.2     1  UNL1       -0.2202
      4 C         138.5129  141.8083  164.0784 C.3     1  UNL1        0.1580
      5 C         137.6046  142.5988  163.1837 C.3     1  UNL1        0.2351
      6 O         137.5329  143.9991  163.7165 O.2     1  UNL1       -0.4478
      7 C         139.4391  141.1493  165.0570 C.ar    1  UNL1        0.0357
      8 C         140.0092  141.9383  166.1982 C.ar    1  UNL1        0.0007
      9 C         140.9354  141.2793  167.1769 C.ar    1  UNL1        0.0029
     10 C         141.2915  139.8312  167.0144 C.ar    1  UNL1        0.0032
     11 C         140.7214  139.0422  165.8732 C.ar    1  UNL1        0.0366
     12 C         139.7951  139.7013  164.8945 C.ar    1  UNL1        0.1360
     13 O         139.2249  138.9123  163.7533 O.3     1  UNL1       -0.4826
     14 C         138.2987  139.5712  162.7746 C.3     1  UNL1        0.1395
     15 C         138.4190  138.1531  162.3008 C.3     1  UNL1        0.0404
     16 C         137.4924  138.4554  161.1607 C.3     1  UNL1        0.0072
     17 C         137.3720  139.8735  161.6344 C.3     1  UNL1        0.0404
     18 C         137.9427  141.0193  162.9372 C.3     1  UNL1        0.1141
     19 C         138.2011  140.8354  163.2102 C.3     1  UNL1        0.1501
     20 O         137.9295  141.0286  162.9232 O.3     1  UNL1       -0.3532
     21 C         138.2011  140.8354  163.2102 C.3     1  UNL1        0.1501
     22 H         139.2050  145.2394  166.5790 H       1  UNL1        0.1466
     23 H         138.1725  146.1379  165.5619 H       1  UNL1        0.1466
     24 C         141.5056  142.0684  168.3181 C.ar    1  UNL1        0.0384
     25 C         142.9631  141.9553  168.6539 C.ar    1  UNL1        0.1022
     26 N         143.5333  142.7443  169.7951 N.ar    1  UNL1       -0.2224
     27 C         142.6459  143.6464  170.6005 C.ar    1  UNL1        0.1989
     28 N         141.1883  143.7595  170.2648 N.ar    1  UNL1       -0.2224
     29 C         140.6182  142.9705  169.1236 C.ar    1  UNL1        0.1022
@<TRIPOS>BOND
     1     1     2    1
     2     2     3    2
     3     3     4    1
     4     4     5    1
     5     5     6    1
     6     4     7    1
     7     7     8   ar
     8     8     9   ar
     9     9    24    1
    10    24    25   ar
    11    25    26   ar
    12    26    27   ar
    13    27    28   ar
    14    28    29   ar
    15     9    10   ar
    16    10    11   ar
    17    11    12   ar
    18    12    13    1
    19    13    14    1
    20    14    15    1
    21    15    16    1
    22    16    17    1
    23    14    18    1
    24    18    19    1
    25    19    20    1
    26    20    21    1
    27     6     2    1
    28    12     7   ar
    29    17    14    1
    30    21    18    1
    31    18     4    1
    32    29    24   ar
    33     1    22    1
    34     1    23    1
@<TRIPOS>MOLECULE
*****
 29 34 0 0 0
SMALL
GASTEIGER

@<TRIPOS>ATOM
      1 N         137.6938  138.3690  166.7574 N.pl3   1  UNL1       -0.3133
      2 C         138.7740  138.3213  165.7178 C.2     1  UNL1        0.2770
      3 N         140.0050  139.1780  165.6853 N.2     1  UNL1       -0.2202
      4 C         140.8046  138.7947  164.4755 C.3     1  UNL1        0.1580
      5 C         140.0679  137.7012  163.7603 C.3     1  UNL1        0.2351
      6 O         138.8129  137.4086  164.5281 O.2     1  UNL1       -0.4478
      7 C         141.4243  139.8872  165.2955 C.ar    1  UNL1        0.0357
      8 C         140.7372  140.3755  166.5362 C.ar    1  UNL1        0.0007
      9 C         141.3569  141.4680  167.3562 C.ar    1  UNL1        0.0029
     10 C         142.6638  142.0722  166.9355 C.ar    1  UNL1        0.0032
     11 C         143.3510  141.5839  165.6948 C.ar    1  UNL1        0.0366
     12 C         142.7312  140.4914  164.8748 C.ar    1  UNL1        0.1360
     13 O         143.4184  140.0030  163.6341 O.3     1  UNL1       -0.4826
     14 C         142.7987  138.9105  162.8141 C.3     1  UNL1        0.1395
     15 C         144.0712  139.2579  162.0998 C.3     1  UNL1        0.0404
     16 C         143.7705  138.2199  161.0594 C.3     1  UNL1        0.0072
     17 C         142.4980  137.8725  161.7738 C.3     1  UNL1        0.0404
     18 C         141.4918  138.3064  163.2348 C.3     1  UNL1        0.1141
     19 C         141.6647  138.6112  163.4636 C.3     1  UNL1        0.1501
     20 O         141.4830  138.2908  163.2231 O.3     1  UNL1       -0.3532
     21 C         141.6647  138.6112  163.4636 C.3     1  UNL1        0.1501
     22 H         137.7581  139.0062  167.5051 H       1  UNL1        0.1466
     23 H         136.9206  137.7631  166.6921 H       1  UNL1        0.1466
     24 C         140.6697  141.9564  168.5969 C.ar    1  UNL1        0.0384
     25 C         140.8404  143.3798  169.0379 C.ar    1  UNL1        0.1022
     26 N         140.1532  143.8682  170.2786 N.ar    1  UNL1       -0.2224
     27 C         139.2953  142.9330  171.0783 C.ar    1  UNL1        0.1989
     28 N         139.1246  141.5095  170.6373 N.ar    1  UNL1       -0.2224
     29 C         139.8118  141.0211  169.3966 C.ar    1  UNL1        0.1022
@<TRIPOS>BOND
     1     1     2    1
     2     2     3    2
     3     3     4    1
     4     4     5    1
     5     5     6    1
     6     4     7    1
     7     7     8   ar
     8     8     9   ar
     9     9    24    1
    10    24    25   ar
    11    25    26   ar
    12    26    27   ar
    13    27    28   ar
    14    28    29   ar
    15     9    10   ar
    16    10    11   ar
    17    11    12   ar
    18    12    13    1
    19    13    14    1
    20    14    15    1
    21    15    16    1
    22    16    17    1
    23    14    18    1
    24    18    19    1
    25    19    20    1
    26    20    21    1
    27     6     2    1
    28    12     7   ar
    29    17    14    1
    30    21    18    1
    31    18     4    1
    32    29    24   ar
    33     1    22    1
    34     1    23    1
@<TRIPOS>MOLECULE
*****
 29 34 0 0 0
SMALL
GASTEIGER

@<TRIPOS>ATOM
      1 N         144.3067  140.3159  162.0997 N.pl3   1  UNL1       -0.3133
      2 C         143.8935  140.1103  163.5270 C.2     1  UNL1        0.2770
      3 N         142.8836  140.9258  164.2788 N.2     1  UNL1       -0.2202
      4 C         142.7837  140.3727  165.6694 C.3     1  UNL1        0.1580
      5 C         143.7319  139.2153  165.7771 C.3     1  UNL1        0.2351
      6 O         144.4178  139.0532  164.4530 O.2     1  UNL1       -0.4478
      7 C         141.8839  141.5451  165.4131 C.ar    1  UNL1        0.0357
      8 C         141.8756  142.2036  164.0654 C.ar    1  UNL1        0.0007
      9 C         140.9758  143.3761  163.8090 C.ar    1  UNL1        0.0029
     10 C         140.0842  143.8900  164.9004 C.ar    1  UNL1        0.0032
     11 C         140.0925  143.2314  166.2481 C.ar    1  UNL1        0.0366
     12 C         140.9923  142.0590  166.5044 C.ar    1  UNL1        0.1360
     13 O         141.0006  141.4004  167.8521 O.3     1  UNL1       -0.4826
     14 C         141.9004  140.2280  168.1084 C.3     1  UNL1        0.1395
     15 C         141.1748  140.4508  169.4023 C.3     1  UNL1        0.0404
     16 C         141.9120  139.2966  170.0144 C.3     1  UNL1        0.0072
     17 C         142.6376  139.0738  168.7205 C.3     1  UNL1        0.0404
     18 C         142.7919  139.7141  167.0171 C.3     1  UNL1        0.1141
     19 C         142.5409  140.0412  166.9456 C.3     1  UNL1        0.1501
     20 O         142.8047  139.6974  167.0208 O.3     1  UNL1       -0.3532
     21 C         142.5409  140.0412  166.9456 C.3     1  UNL1        0.1501
     22 H         143.9033  141.0412  161.5701 H       1  UNL1        0.1466
     23 H         144.9812  139.7256  161.6926 H       1  UNL1        0.1466
     24 C         140.9676  144.0346  162.4613 C.ar    1  UNL1        0.0384
     25 C         142.1716  143.9381  161.5720 C.ar    1  UNL1        0.1022
     26 N         142.1634  144.5966  160.2243 N.ar    1  UNL1       -0.2224
     27 C         140.9511  145.3517  159.7660 C.ar    1  UNL1        0.1989
     28 N         139.7469  145.4483  160.6553 N.ar    1  UNL1       -0.2224
     29 C         139.7552  144.7897  162.0030 C.ar    1  UNL1        0.1022
@<TRIPOS>BOND
     1     1     2    1
     2     2     3    2
     3     3     4    1
     4     4     5    1
     5     5     6    1
     6     4     7    1
     7     7     8   ar
     8     8     9   ar
     9     9    24    1
    10    24    25   ar
    11    25    26   ar
    12    26    27   ar
    13    27    28   ar
    14    28    29   ar
    15     9    10   ar
    16    10    11   ar
    17    11    12   ar
    18    12    13    1
    19    13    14    1
    20    14    15    1
    21    15    16    1
    22    16    17    1
    23    14    18    1
    24    18    19    1
    25    19    20    1
    26    20    21    1
    27     6     2    1
    28    12     7   ar
    29    17    14    1
    30    21    18    1
    31    18     4    1
    32    29    24   ar
    33     1    22    1
    34     1    23    1
@<TRIPOS>MOLECULE
*****
 29 34 0 0 0
SMALL
GASTEIGER

@<TRIPOS>ATOM
      1 N         137.4539  141.0927  163.5398 N.pl3   1  UNL1       -0.3133
      2 C         138.3114  140.8027  164.7358 C.2     1  UNL1        0.2770
      3 N         139.6453  141.4204  165.0351 N.2     1  UNL1       -0.2202
      4 C         140.1439  140.8435  166.3267 C.3     1  UNL1        0.1580
      5 C         139.1183  139.8692  166.8258 C.3     1  UNL1        0.2351
      6 O         137.9858  139.8440  165.8425 O.2     1  UNL1       -0.4478
      7 C         141.0742  141.8427  165.7054 C.ar    1  UNL1        0.0357
      8 C         140.7079  142.5039  164.4098 C.ar    1  UNL1        0.0007
      9 C         141.6382  143.5031  163.7884 C.ar    1  UNL1        0.0029
     10 C         142.9348  143.8411  164.4627 C.ar    1  UNL1        0.0032
     11 C         143.3011  143.1799  165.7583 C.ar    1  UNL1        0.0366
     12 C         142.3708  142.1806  166.3796 C.ar    1  UNL1        0.1360
     13 O         142.7371  141.5193  167.6752 O.3     1  UNL1       -0.4826
     14 C         141.8068  140.5201  168.2966 C.3     1  UNL1        0.1395
     15 C         142.9750  140.5985  169.2343 C.3     1  UNL1        0.0404
     16 C         142.3248  139.5849  170.1289 C.3     1  UNL1        0.0072
     17 C         141.1566  139.5066  169.1911 C.3     1  UNL1        0.0404
     18 C         140.5102  140.1822  167.6223 C.3     1  UNL1        0.1141
     19 C         140.7697  140.4609  167.4490 C.3     1  UNL1        0.1501
     20 O         140.4970  140.1680  167.6312 O.3     1  UNL1       -0.3532
     21 C         140.7697  140.4609  167.4490 C.3     1  UNL1        0.1501
     22 H         137.7554  141.7417  162.8637 H       1  UNL1        0.1466
     23 H         136.5895  140.6342  163.4310 H       1  UNL1        0.1466
     24 C         141.2719  144.1644  162.4928 C.ar    1  UNL1        0.0384
     25 C         139.9668  144.8926  162.3652 C.ar    1  UNL1        0.1022
     26 N         139.6005  145.5539  161.0696 N.ar    1  UNL1       -0.2224
     27 C         140.5393  145.4869  159.9016 C.ar    1  UNL1        0.1989
     28 N         141.8445  144.7587  160.0293 N.ar    1  UNL1       -0.2224
     29 C         142.2108  144.0974  161.3249 C.ar    1  UNL1        0.1022
@<TRIPOS>BOND
     1     1     2    1
     2     2     3    2
     3     3     4    1
     4     4     5    1
     5     5     6    1
     6     4     7    1
     7     7     8   ar
     8     8     9   ar
     9     9    24    1
    10    24    25   ar
    11    25    26   ar
    12    26    27   ar
    13    27    28   ar
    14    28    29   ar
    15     9    10   ar
    16    10    11   ar
    17    11    12   ar
    18    12    13    1
    19    13    14    1
    20    14    15    1
    21    15    16    1
    22    16    17    1
    23    14    18    1
    24    18    19    1
    25    19    20    1
    26    20    21    1
    27     6     2    1
    28    12     7   ar
    29    17    14    1
    30    21    18    1
    31    18     4    1
    32    29    24   ar
    33     1    22    1
    34     1    23    1
@<TRIPOS>MOLECULE
*****
 29 34 0 0 0
SMALL
GASTEIGER

@<TRIPOS>ATOM
      1 N         138.2823  139.6041  169.3519 N.pl3   1  UNL1       -0.3133
      2 C         138.4000  139.3132  167.8851 C.2     1  UNL1        0.2770
      3 N         139.4492  139.8553  166.9601 N.2     1  UNL1       -0.2202
      4 C         139.1869  139.3063  165.5892 C.3     1  UNL1        0.1580
      5 C         137.9756  138.4248  165.6668 C.3     1  UNL1        0.2351
      6 O         137.4893  138.4291  167.0858 O.2     1  UNL1       -0.4478
      7 C         140.3791  140.2133  165.6653 C.ar    1  UNL1        0.0357
      8 C         140.7642  140.8376  166.9737 C.ar    1  UNL1        0.0007
      9 C         141.9565  141.7446  167.0499 C.ar    1  UNL1        0.0029
     10 C         142.7637  142.0273  165.8175 C.ar    1  UNL1        0.0032
     11 C         142.3786  141.4030  164.5091 C.ar    1  UNL1        0.0366
     12 C         141.1863  140.4960  164.4330 C.ar    1  UNL1        0.1360
     13 O         140.8012  139.8717  163.1246 O.3     1  UNL1       -0.4826
     14 C         139.6089  138.9647  163.0485 C.3     1  UNL1        0.1395
     15 C         140.1529  139.0090  161.6512 C.3     1  UNL1        0.0404
     16 C         139.0643  138.0818  161.1980 C.3     1  UNL1        0.0072
     17 C         138.5203  138.0375  162.5953 C.3     1  UNL1        0.0404
     18 C         138.8018  138.6820  164.2807 C.3     1  UNL1        0.1141
     19 C         139.1344  138.9350  164.3020 C.3     1  UNL1        0.1501
     20 O         138.7848  138.6691  164.2796 O.3     1  UNL1       -0.3532
     21 C         139.1344  138.9350  164.3020 C.3     1  UNL1        0.1501
     22 H         138.9322  140.2006  169.7892 H       1  UNL1        0.1466
     23 H         137.5552  139.1986  169.8774 H       1  UNL1        0.1466
     24 C         142.3416  142.3688  168.3583 C.ar    1  UNL1        0.0384
     25 C         143.7705  142.3357  168.8133 C.ar    1  UNL1        0.1022
     26 N         144.1556  142.9600  170.1218 N.ar    1  UNL1       -0.2224
     27 C         143.1118  143.6174  170.9751 C.ar    1  UNL1        0.1989
     28 N         141.6829  143.6506  170.5201 N.ar    1  UNL1       -0.2224
     29 C         141.2977  143.0263  169.2116 C.ar    1  UNL1        0.1022
@<TRIPOS>BOND
     1     1     2    1
     2     2     3    2
     3     3     4    1
     4     4     5    1
     5     5     6    1
     6     4     7    1
     7     7     8   ar
     8     8     9   ar
     9     9    24    1
    10    24    25   ar
    11    25    26   ar
    12    26    27   ar
    13    27    28   ar
    14    28    29   ar
    15     9    10   ar
    16    10    11   ar
    17    11    12   ar
    18    12    13    1
    19    13    14    1
    20    14    15    1
    21    15    16    1
    22    16    17    1
    23    14    18    1
    24    18    19    1
    25    19    20    1
    26    20    21    1
    27     6     2    1
    28    12     7   ar
    29    17    14    1
    30    21    18    1
    31    18     4    1
    32    29    24   ar
    33     1    22    1
    34     1    23    1
@<TRIPOS>MOLECULE
*****
 29 34 0 0 0
SMALL
GASTEIGER

@<TRIPOS>ATOM
      1 N         138.8636  137.7067  163.3383 N.pl3   1  UNL1       -0.3133
      2 C         139.0270  138.3866  164.6653 C.2     1  UNL1        0.2770
      3 N         140.1135  139.3535  165.0329 N.2     1  UNL1       -0.2202
      4 C         139.8906  139.7835  166.4524 C.3     1  UNL1        0.1580
      5 C         138.6664  139.0824  166.9623 C.3     1  UNL1        0.2351
      6 O         138.1327  138.2191  165.8578 O.2     1  UNL1       -0.4478
      7 C         141.0910  140.4096  165.8066 C.ar    1  UNL1        0.0357
      8 C         141.4396  140.0736  164.3869 C.ar    1  UNL1        0.0007
      9 C         142.6399  140.6997  163.7410 C.ar    1  UNL1        0.0029
     10 C         143.4917  141.6619  164.5149 C.ar    1  UNL1        0.0032
     11 C         143.1431  141.9979  165.9346 C.ar    1  UNL1        0.0366
     12 C         141.9427  141.3717  166.5805 C.ar    1  UNL1        0.1360
     13 O         141.5940  141.7077  168.0002 O.3     1  UNL1       -0.4826
     14 C         140.3937  141.0816  168.6460 C.3     1  UNL1        0.1395
     15 C         140.9850  141.9676  169.7022 C.3     1  UNL1        0.0404
     16 C         139.9007  141.5568  170.6539 C.3     1  UNL1        0.0072
     17 C         139.3094  140.6707  169.5977 C.3     1  UNL1        0.0404
     18 C         139.5420  140.1195  167.8721 C.3     1  UNL1        0.1141
     19 C         139.8769  140.2942  167.6920 C.3     1  UNL1        0.1501
     20 O         139.5249  140.1106  167.8814 O.3     1  UNL1       -0.3532
     21 C         139.8769  140.2942  167.6920 C.3     1  UNL1        0.1501
     22 H         139.5058  137.8821  162.6130 H       1  UNL1        0.1466
     23 H         138.1142  137.0851  163.1927 H       1  UNL1        0.1466
     24 C         142.9885  140.3637  162.3213 C.ar    1  UNL1        0.0384
     25 C         142.5031  141.2374  161.2029 C.ar    1  UNL1        0.1022
     26 N         142.8517  140.9015  159.7832 N.ar    1  UNL1       -0.2224
     27 C         143.6858  139.6917  159.4819 C.ar    1  UNL1        0.1989
     28 N         144.1713  138.8179  160.6004 N.ar    1  UNL1       -0.2224
     29 C         143.8227  139.1539  162.0201 C.ar    1  UNL1        0.1022
@<TRIPOS>BOND
     1     1     2    1
     2     2     3    2
     3     3     4    1
     4     4     5    1
     5     5     6    1
     6     4     7    1
     7     7     8   ar
     8     8     9   ar
     9     9    24    1
    10    24    25   ar
    11    25    26   ar
    12    26    27   ar
    13    27    28   ar
    14    28    29   ar
    15     9    10   ar
    16    10    11   ar
    17    11    12   ar
    18    12    13    1
    19    13    14    1
    20    14    15    1
    21    15    16    1
    22    16    17    1
    23    14    18    1
    24    18    19    1
    25    19    20    1
    26    20    21    1
    27     6     2    1
    28    12     7   ar
    29    17    14    1
    30    21    18    1
    31    18     4    1
    32    29    24   ar
    33     1    22    1
    34     1    23    1
@<TRIPOS>MOLECULE
*****
 29 34 0 0 0
SMALL
GASTEIGER

@<TRIPOS>ATOM
      1 N         143.7477  142.7225  165.7957 N.pl3   1  UNL1       -0.3133
      2 C         142.9286  141.9121  164.8354 C.2     1  UNL1        0.2770
      3 N         141.7027  141.1168  165.1748 N.2     1  UNL1       -0.2202
      4 C         141.2080  140.4679  163.9163 C.3     1  UNL1        0.1580
      5 C         142.1281  140.8620  162.7990 C.3     1  UNL1        0.2351
      6 O         143.1914  141.7545  163.3670 O.2     1  UNL1       -0.4478
      7 C         140.3787  140.1607  165.1278 C.ar    1  UNL1        0.0357
      8 C         140.7528  140.7408  166.4595 C.ar    1  UNL1        0.0007
      9 C         139.9235  140.4336  167.6711 C.ar    1  UNL1        0.0029
     10 C         138.7200  139.5463  167.5509 C.ar    1  UNL1        0.0032
     11 C         138.3459  138.9663  166.2191 C.ar    1  UNL1        0.0366
     12 C         139.1753  139.2735  165.0076 C.ar    1  UNL1        0.1360
     13 O         138.8012  138.6934  163.6758 O.3     1  UNL1       -0.4826
     14 C         139.6305  139.0006  162.4643 C.3     1  UNL1        0.1395
     15 C         138.5360  138.1028  161.9681 C.3     1  UNL1        0.0404
     16 C         139.1014  138.1802  160.5808 C.3     1  UNL1        0.0072
     17 C         140.1958  139.0781  161.0770 C.3     1  UNL1        0.0404
     18 C         140.8339  139.8878  162.5845 C.3     1  UNL1        0.1141
     19 C         140.6025  139.8021  162.9225 C.3     1  UNL1        0.1501
     20 O         140.8457  139.8922  162.5673 O.3     1  UNL1       -0.3532
     21 C         140.6025  139.8021  162.9225 C.3     1  UNL1        0.1501
     22 H         143.4936  142.7644  166.7459 H       1  UNL1        0.1466
     23 H         144.5394  143.2124  165.4758 H       1  UNL1        0.1466
     24 C         140.2976  141.0137  169.0028 C.ar    1  UNL1        0.0384
     25 C         140.8439  142.4081  169.0867 C.ar    1  UNL1        0.1022
     26 N         141.2180  142.9882  170.4185 N.ar    1  UNL1       -0.2224
     27 C         141.0458  142.1738  171.6663 C.ar    1  UNL1        0.1989
     28 N         140.4995  140.7793  171.5824 N.ar    1  UNL1       -0.2224
     29 C         140.1254  140.1992  170.2507 C.ar    1  UNL1        0.1022
@<TRIPOS>BOND
     1     1     2    1
     2     2     3    2
     3     3     4    1
     4     4     5    1
     5     5     6    1
     6     4     7    1
     7     7     8   ar
     8     8     9   ar
     9     9    24    1
    10    24    25   ar
    11    25    26   ar
    12    26    27   ar
    13    27    28   ar
    14    28    29   ar
    15     9    10   ar
    16    10    11   ar
    17    11    12   ar
    18    12    13    1
    19    13    14    1
    20    14    15    1
    21    15    16    1
    22    16    17    1
    23    14    18    1
    24    18    19    1
    25    19    20    1
    26    20    21    1
    27     6     2    1
    28    12     7   ar
    29    17    14    1
    30    21    18    1
    31    18     4    1
    32    29    24   ar
    33     1    22    1
    34     1    23    1
@<TRIPOS>MOLECULE
*****
 29 34 0 0 0
SMALL
GASTEIGER

@<TRIPOS>ATOM
      1 N         138.5820  145.0948  165.9613 N.pl3   1  UNL1       -0.3133
      2 C         138.4715  144.2619  164.7187 C.2     1  UNL1        0.2770
      3 N         138.7231  142.7863  164.6210 N.2     1  UNL1       -0.2202
      4 C         138.4972  142.3708  163.1976 C.3     1  UNL1        0.1580
      5 C         138.1060  143.5896  162.4155 C.3     1  UNL1        0.2351
      6 O         138.0902  144.7583  163.3556 O.2     1  UNL1       -0.4478
      7 C         138.8977  141.2458  164.1053 C.ar    1  UNL1        0.0357
      8 C         139.1577  141.5110  165.5586 C.ar    1  UNL1        0.0007
      9 C         139.5582  140.3860  166.4663 C.ar    1  UNL1        0.0029
     10 C         139.6988  138.9958  165.9207 C.ar    1  UNL1        0.0032
     11 C         139.4388  138.7306  164.4674 C.ar    1  UNL1        0.0366
     12 C         139.0383  139.8557  163.5597 C.ar    1  UNL1        0.1360
     13 O         138.7783  139.5905  162.1064 O.3     1  UNL1       -0.4826
     14 C         138.3778  140.7155  161.1987 C.3     1  UNL1        0.1395
     15 C         138.4148  139.5012  160.3188 C.3     1  UNL1        0.0404
     16 C         138.0101  140.3405  159.1433 C.3     1  UNL1        0.0072
     17 C         137.9730  141.5549  160.0232 C.3     1  UNL1        0.0404
     18 C         138.2372  142.1056  161.7443 C.3     1  UNL1        0.1141
     19 C         138.3489  141.7918  161.9975 C.3     1  UNL1        0.1501
     20 O         138.2315  142.1217  161.7313 O.3     1  UNL1       -0.3532
     21 C         138.3489  141.7918  161.9975 C.3     1  UNL1        0.1501
     22 H         138.8405  144.6754  166.8136 H       1  UNL1        0.1466
     23 H         138.3959  146.0608  165.9245 H       1  UNL1        0.1466
     24 C         139.8182  140.6512  167.9196 C.ar    1  UNL1        0.0384
     25 C         139.0361  139.9165  168.9677 C.ar    1  UNL1        0.1022
     26 N         139.2961  140.1816  170.4210 N.ar    1  UNL1       -0.2224
     27 C         140.3382  141.1815  170.8262 C.ar    1  UNL1        0.1989
     28 N         141.1204  141.9162  169.7781 N.ar    1  UNL1       -0.2224
     29 C         140.8604  141.6511  168.3248 C.ar    1  UNL1        0.1022
@<TRIPOS>BOND
     1     1     2    1
     2     2     3    2
     3     3     4    1
     4     4     5    1
     5     5     6    1
     6     4     7    1
     7     7     8   ar
     8     8     9   ar
     9     9    24    1
    10    24    25   ar
    11    25    26   ar
    12    26    27   ar
    13    27    28   ar
    14    28    29   ar
    15     9    10   ar
    16    10    11   ar
    17    11    12   ar
    18    12    13    1
    19    13    14    1
    20    14    15    1
    21    15    16    1
    22    16    17    1
    23    14    18    1
    24    18    19    1
    25    19    20    1
    26    20    21    1
    27     6     2    1
    28    12     7   ar
    29    17    14    1
    30    21    18    1
    31    18     4    1
    32    29    24   ar
    33     1    22    1
    34     1    23    1
@<TRIPOS>MOLECULE
*****
 29 34 0 0 0
SMALL
GASTEIGER

@<TRIPOS>ATOM
      1 N         141.8152  138.4198  162.2426 N.pl3   1  UNL1       -0.3133
      2 C         142.0146  138.8724  163.6587 C.2     1  UNL1        0.2770
      3 N         142.5377  140.2100  164.0915 N.2     1  UNL1       -0.2202
      4 C         142.5723  140.2312  165.5909 C.3     1  UNL1        0.1580
      5 C         142.0705  138.9067  166.0848 C.3     1  UNL1        0.2351
      6 O         141.7259  138.0669  164.8907 O.2     1  UNL1       -0.4478
      7 C         143.0505  141.5011  164.9516 C.ar    1  UNL1        0.0357
      8 C         143.0724  141.6263  163.4570 C.ar    1  UNL1        0.0007
      9 C         143.5505  142.8962  162.8177 C.ar    1  UNL1        0.0029
     10 C         144.0068  144.0409  163.6730 C.ar    1  UNL1        0.0032
     11 C         143.9849  143.9157  165.1676 C.ar    1  UNL1        0.0366
     12 C         143.5067  142.6457  165.8069 C.ar    1  UNL1        0.1360
     13 O         143.4848  142.5205  167.3015 O.3     1  UNL1       -0.4826
     14 C         143.0066  141.2506  167.9408 C.3     1  UNL1        0.1395
     15 C         143.3726  142.1479  169.0859 C.3     1  UNL1        0.0404
     16 C         142.9756  141.0735  170.0545 C.3     1  UNL1        0.0072
     17 C         142.6096  140.1763  168.9095 C.3     1  UNL1        0.0404
     18 C         142.5504  140.1060  167.0855 C.3     1  UNL1        0.1141
     19 C         142.6838  140.4603  166.9072 C.3     1  UNL1        0.1501
     20 O         142.5436  140.0879  167.0946 O.3     1  UNL1       -0.3532
     21 C         142.6838  140.4603  166.9072 C.3     1  UNL1        0.1501
     22 H         142.0350  139.0241  161.4971 H       1  UNL1        0.1466
     23 H         141.4646  137.5184  162.0587 H       1  UNL1        0.1466
     24 C         143.5725  143.0214  161.3231 C.ar    1  UNL1        0.0384
     25 C         142.4850  143.7762  160.6176 C.ar    1  UNL1        0.1022
     26 N         142.5069  143.9014  159.1230 N.ar    1  UNL1       -0.2224
     27 C         143.6163  143.2719  158.3339 C.ar    1  UNL1        0.1989
     28 N         144.7039  142.5171  159.0393 N.ar    1  UNL1       -0.2224
     29 C         144.6820  142.3918  160.5339 C.ar    1  UNL1        0.1022
@<TRIPOS>BOND
     1     1     2    1
     2     2     3    2
     3     3     4    1
     4     4     5    1
     5     5     6    1
     6     4     7    1
     7     7     8   ar
     8     8     9   ar
     9     9    24    1
    10    24    25   ar
    11    25    26   ar
    12    26    27   ar
    13    27    28   ar
    14    28    29   ar
    15     9    10   ar
    16    10    11   ar
    17    11    12   ar
    18    12    13    1
    19    13    14    1
    20    14    15    1
    21    15    16    1
    22    16    17    1
    23    14    18    1
    24    18    19    1
    25    19    20    1
    26    20    21    1
    27     6     2    1
    28    12     7   ar
    29    17    14    1
    30    21    18    1
    31    18     4    1
    32    29    24   ar
    33     1    22    1
    34     1    23    1
