@<TRIPOS>MOLECULE
*****
 34 37 0 0 0
SMALL
GASTEIGER

@<TRIPOS>ATOM
      1 C         140.7369  145.0653  162.1352 C.2     1  UNL1        0.2470
      2 O         139.7632  146.1988  162.2657 O.2     1  UNL1       -0.2701
      3 N         141.2849  144.6986  160.7879 N.am    1  UNL1       -0.3008
      4 H         141.9240  143.9546  160.7023 H       1  UNL1        0.1497
      5 C         143.8091  144.6035  163.1343 C.3     1  UNL1        0.0502
      6 C         142.5746  144.0861  163.8113 C.ar    1  UNL1        0.0418
      7 C         141.1625  144.2984  163.3521 C.ar    1  UNL1        0.0664
      8 C         140.2507  143.6090  164.3234 C.ar    1  UNL1        0.0228
      9 C         141.0992  142.9708  165.3829 C.ar    1  UNL1        0.0598
     10 N         142.5355  143.2657  165.0664 N.ar    1  UNL1       -0.3285
     11 C         143.7241  142.8185  165.8648 C.3     1  UNL1        0.1301
     12 C         140.5993  142.1770  166.5534 C.ar    1  UNL1        0.0158
     13 C         140.7523  142.7155  167.9450 C.ar    1  UNL1        0.0014
     14 C         140.2524  141.9218  169.1155 C.ar    1  UNL1        0.0000
     15 C         139.5995  140.5895  168.8943 C.ar    1  UNL1        0.0000
     16 C         139.4465  140.0510  167.5027 C.ar    1  UNL1        0.0000
     17 C         139.9464  140.8448  166.3322 C.ar    1  UNL1        0.0014
     18 C         140.8593  145.4655  159.5711 C.3     1  UNL1        0.0911
     19 C         140.4739  144.7334  158.3199 C.3     1  UNL1        0.0386
     20 C         139.4937  143.5999  158.3859 C.3     1  UNL1        0.0739
     21 N         139.6277  142.5535  159.4523 N.3     1  UNL1       -0.2697
     22 C         140.7235  141.5327  159.3679 C.3     1  UNL1        0.0938
     23 C         140.8575  140.4864  160.4343 C.3     1  UNL1        0.1081
     24 N         139.8957  140.4609  161.5850 N.pl3   1  UNL1       -0.3040
     25 C         138.7999  141.4817  161.6694 C.3     1  UNL1        0.1081
     26 C         138.6659  142.5280  160.6031 C.3     1  UNL1        0.0938
     27 C         140.0297  139.4145  162.6514 C.ar    1  UNL1        0.0594
     28 C         138.9057  138.4543  162.9055 C.ar    1  UNL1        0.0154
     29 C         139.0398  137.4079  163.9719 C.ar    1  UNL1        0.0022
     30 C         140.2978  137.3217  164.7842 C.ar    1  UNL1        0.0123
     31 C         141.4219  138.2820  164.5301 C.ar    1  UNL1        0.0694
     32 CL        142.6800  138.1959  165.3424 Cl      1  UNL1       -0.0813
     33 C         141.2878  139.3283  163.4637 C.ar    1  UNL1        0.0815
     34 CL        142.4119  140.2886  163.2096 Cl      1  UNL1       -0.0801
@<TRIPOS>BOND
     1     5     6    1
     2     6     7   ar
     3     7     1    1
     4     1     2    2
     5     1     3   am
     6     3    18    1
     7    18    19    1
     8    19    20    1
     9    20    21    1
    10    21    22    1
    11    22    23    1
    12    23    24    1
    13    24    27    1
    14    27    28   ar
    15    28    29   ar
    16    29    30   ar
    17    30    31   ar
    18    31    32    1
    19    31    33   ar
    20    33    34    1
    21    24    25    1
    22    25    26    1
    23     7     8   ar
    24     8     9   ar
    25     9    12    1
    26    12    13   ar
    27    13    14   ar
    28    14    15   ar
    29    15    16   ar
    30    16    17   ar
    31     9    10   ar
    32    10    11    1
    33    10     6   ar
    34    26    21    1
    35    17    12   ar
    36    33    27   ar
    37     3     4    1
@<TRIPOS>MOLECULE
*****
 34 37 0 0 0
SMALL
GASTEIGER

@<TRIPOS>ATOM
      1 C         141.9576  144.3535  161.8136 C.2     1  UNL1        0.2470
      2 O         141.1713  145.5243  162.3245 O.2     1  UNL1       -0.2701
      3 N         142.0558  144.1025  160.3380 N.am    1  UNL1       -0.3008
      4 H         142.5718  143.3341  160.0026 H       1  UNL1        0.1497
      5 C         144.8585  142.9269  161.3670 C.3     1  UNL1        0.0502
      6 C         143.9791  142.7780  162.5730 C.ar    1  UNL1        0.0418
      7 C         142.6457  143.4337  162.7782 C.ar    1  UNL1        0.0664
      8 C         142.1212  143.0081  164.1176 C.ar    1  UNL1        0.0228
      9 C         143.1303  142.0894  164.7401 C.ar    1  UNL1        0.0598
     10 N         144.2786  141.9472  163.7854 N.ar    1  UNL1       -0.3285
     11 C         145.5102  141.1195  164.0047 C.3     1  UNL1        0.1301
     12 C         143.0121  141.4289  166.0816 C.ar    1  UNL1        0.0158
     13 C         143.0249  142.2598  167.3304 C.ar    1  UNL1        0.0014
     14 C         142.9067  141.5993  168.6719 C.ar    1  UNL1        0.0000
     15 C         142.7756  140.1079  168.7646 C.ar    1  UNL1        0.0000
     16 C         142.7627  139.2770  167.5159 C.ar    1  UNL1        0.0000
     17 C         142.8810  139.9375  166.1744 C.ar    1  UNL1        0.0014
     18 C         141.3677  145.0223  159.3734 C.3     1  UNL1        0.0911
     19 C         140.1237  144.5728  158.6658 C.3     1  UNL1        0.0386
     20 C         139.6703  143.1475  158.7785 C.3     1  UNL1        0.0739
     21 N         139.5467  142.5042  160.1280 N.3     1  UNL1       -0.2697
     22 C         138.5741  143.0483  161.1319 C.3     1  UNL1        0.0938
     23 C         138.4505  142.4050  162.4813 C.3     1  UNL1        0.1081
     24 N         139.2995  141.2176  162.8267 N.pl3   1  UNL1       -0.3040
     25 C         140.2721  140.6735  161.8228 C.3     1  UNL1        0.1081
     26 C         140.3957  141.3168  160.4734 C.3     1  UNL1        0.0938
     27 C         139.1759  140.5743  164.1762 C.ar    1  UNL1        0.0594
     28 C         139.4774  141.3653  165.4145 C.ar    1  UNL1        0.0154
     29 C         139.3537  140.7220  166.7640 C.ar    1  UNL1        0.0022
     30 C         138.9287  139.2877  166.8750 C.ar    1  UNL1        0.0123
     31 C         138.6272  138.4968  165.6366 C.ar    1  UNL1        0.0694
     32 CL        138.2022  137.0626  165.7476 Cl      1  UNL1       -0.0813
     33 C         138.7509  139.1401  164.2872 C.ar    1  UNL1        0.0815
     34 CL        138.4494  138.3492  163.0488 Cl      1  UNL1       -0.0801
@<TRIPOS>BOND
     1     5     6    1
     2     6     7   ar
     3     7     1    1
     4     1     2    2
     5     1     3   am
     6     3    18    1
     7    18    19    1
     8    19    20    1
     9    20    21    1
    10    21    22    1
    11    22    23    1
    12    23    24    1
    13    24    27    1
    14    27    28   ar
    15    28    29   ar
    16    29    30   ar
    17    30    31   ar
    18    31    32    1
    19    31    33   ar
    20    33    34    1
    21    24    25    1
    22    25    26    1
    23     7     8   ar
    24     8     9   ar
    25     9    12    1
    26    12    13   ar
    27    13    14   ar
    28    14    15   ar
    29    15    16   ar
    30    16    17   ar
    31     9    10   ar
    32    10    11    1
    33    10     6   ar
    34    26    21    1
    35    17    12   ar
    36    33    27   ar
    37     3     4    1
@<TRIPOS>MOLECULE
*****
 34 37 0 0 0
SMALL
GASTEIGER

@<TRIPOS>ATOM
      1 C         139.0161  144.3789  163.2194 C.2     1  UNL1        0.2470
      2 O         137.7147  144.1896  162.4979 O.2     1  UNL1       -0.2701
      3 N         139.9778  145.4370  162.7663 N.am    1  UNL1       -0.3008
      4 H         140.8320  145.5613  163.2398 H       1  UNL1        0.1497
      5 C         137.9478  141.3375  163.7281 C.3     1  UNL1        0.0502
      6 C         138.8647  142.1120  164.6278 C.ar    1  UNL1        0.0418
      7 C         139.3558  143.5099  164.3939 C.ar    1  UNL1        0.0664
      8 C         140.2462  143.8863  165.5409 C.ar    1  UNL1        0.0228
      9 C         140.3055  142.7211  166.4836 C.ar    1  UNL1        0.0598
     10 N         139.4516  141.6245  165.9192 N.ar    1  UNL1       -0.3285
     11 C         139.2246  140.2769  166.5377 C.3     1  UNL1        0.1301
     12 C         141.0822  142.6627  167.7655 C.ar    1  UNL1        0.0158
     13 C         142.4775  142.1123  167.7725 C.ar    1  UNL1        0.0014
     14 C         143.2542  142.0539  169.0545 C.ar    1  UNL1        0.0000
     15 C         142.6355  142.5458  170.3293 C.ar    1  UNL1        0.0000
     16 C         141.2401  143.0962  170.3223 C.ar    1  UNL1        0.0000
     17 C         140.4635  143.1546  169.0404 C.ar    1  UNL1        0.0014
     18 C         139.6381  146.3060  161.5918 C.3     1  UNL1        0.0911
     19 C         140.0718  145.9060  160.2126 C.3     1  UNL1        0.0386
     20 C         141.2449  144.9890  160.0317 C.3     1  UNL1        0.0739
     21 N         141.2974  143.6838  160.7692 N.3     1  UNL1       -0.2697
     22 C         140.2771  142.6212  160.4866 C.3     1  UNL1        0.0938
     23 C         140.3296  141.3161  161.2241 C.3     1  UNL1        0.1081
     24 N         141.4023  141.0736  162.2442 N.pl3   1  UNL1       -0.3040
     25 C         142.4225  142.1363  162.5268 C.3     1  UNL1        0.1081
     26 C         142.3700  143.4413  161.7893 C.3     1  UNL1        0.0938
     27 C         141.4547  139.7684  162.9817 C.ar    1  UNL1        0.0594
     28 C         140.6621  138.5951  162.4870 C.ar    1  UNL1        0.0154
     29 C         140.7145  137.2899  163.2245 C.ar    1  UNL1        0.0022
     30 C         141.5597  137.1582  164.4567 C.ar    1  UNL1        0.0123
     31 C         142.3524  138.3316  164.9514 C.ar    1  UNL1        0.0694
     32 CL        143.1975  138.1999  166.1836 Cl      1  UNL1       -0.0813
     33 C         142.2999  139.6367  164.2139 C.ar    1  UNL1        0.0815
     34 CL        143.0926  140.8102  164.7086 Cl      1  UNL1       -0.0801
@<TRIPOS>BOND
     1     5     6    1
     2     6     7   ar
     3     7     1    1
     4     1     2    2
     5     1     3   am
     6     3    18    1
     7    18    19    1
     8    19    20    1
     9    20    21    1
    10    21    22    1
    11    22    23    1
    12    23    24    1
    13    24    27    1
    14    27    28   ar
    15    28    29   ar
    16    29    30   ar
    17    30    31   ar
    18    31    32    1
    19    31    33   ar
    20    33    34    1
    21    24    25    1
    22    25    26    1
    23     7     8   ar
    24     8     9   ar
    25     9    12    1
    26    12    13   ar
    27    13    14   ar
    28    14    15   ar
    29    15    16   ar
    30    16    17   ar
    31     9    10   ar
    32    10    11    1
    33    10     6   ar
    34    26    21    1
    35    17    12   ar
    36    33    27   ar
    37     3     4    1
@<TRIPOS>MOLECULE
*****
 34 37 0 0 0
SMALL
GASTEIGER

@<TRIPOS>ATOM
      1 C         140.8809  143.4955  159.8317 C.2     1  UNL1        0.2470
      2 O         140.1231  142.7712  158.7588 O.2     1  UNL1       -0.2701
      3 N         142.0891  144.3106  159.4767 N.am    1  UNL1       -0.3008
      4 H         142.5864  144.7860  160.1809 H       1  UNL1        0.1497
      5 C         139.8496  145.9798  161.6796 C.3     1  UNL1        0.0502
      6 C         139.9565  144.5466  162.1090 C.ar    1  UNL1        0.0418
      7 C         140.4306  143.4047  161.2597 C.ar    1  UNL1        0.0664
      8 C         140.3752  142.1560  162.0889 C.ar    1  UNL1        0.0228
      9 C         139.8669  142.5261  163.4508 C.ar    1  UNL1        0.0598
     10 N         139.6082  144.0036  163.4632 N.ar    1  UNL1       -0.3285
     11 C         139.0917  144.7986  164.6257 C.3     1  UNL1        0.1301
     12 C         139.6546  141.5842  164.5987 C.ar    1  UNL1        0.0158
     13 C         138.4729  140.6604  164.6021 C.ar    1  UNL1        0.0014
     14 C         138.2606  139.7185  165.7501 C.ar    1  UNL1        0.0000
     15 C         139.2301  139.7004  166.8945 C.ar    1  UNL1        0.0000
     16 C         140.4119  140.6242  166.8911 C.ar    1  UNL1        0.0000
     17 C         140.6242  141.5661  165.7432 C.ar    1  UNL1        0.0014
     18 C         142.5394  144.4014  158.0488 C.3     1  UNL1        0.0911
     19 C         143.3668  143.3017  157.4520 C.3     1  UNL1        0.0386
     20 C         144.4955  142.7018  158.2369 C.3     1  UNL1        0.0739
     21 N         144.2095  141.9262  159.4886 N.3     1  UNL1       -0.2697
     22 C         144.4081  142.5672  160.8300 C.3     1  UNL1        0.0938
     23 C         144.1221  141.7915  162.0816 C.3     1  UNL1        0.1081
     24 N         143.6375  140.3748  161.9917 N.pl3   1  UNL1       -0.3040
     25 C         143.4389  139.7337  160.6503 C.3     1  UNL1        0.1081
     26 C         143.7249  140.5094  159.3987 C.3     1  UNL1        0.0938
     27 C         143.3515  139.5991  163.2434 C.ar    1  UNL1        0.0594
     28 C         144.3302  139.6218  164.3799 C.ar    1  UNL1        0.0154
     29 C         144.0442  138.8461  165.6316 C.ar    1  UNL1        0.0022
     30 C         142.7795  138.0478  165.7467 C.ar    1  UNL1        0.0123
     31 C         141.8008  138.0251  164.6101 C.ar    1  UNL1        0.0694
     32 CL        140.5361  137.2268  164.7252 Cl      1  UNL1       -0.0813
     33 C         142.0868  138.8008  163.3585 C.ar    1  UNL1        0.0815
     34 CL        141.1082  138.7781  162.2219 Cl      1  UNL1       -0.0801
@<TRIPOS>BOND
     1     5     6    1
     2     6     7   ar
     3     7     1    1
     4     1     2    2
     5     1     3   am
     6     3    18    1
     7    18    19    1
     8    19    20    1
     9    20    21    1
    10    21    22    1
    11    22    23    1
    12    23    24    1
    13    24    27    1
    14    27    28   ar
    15    28    29   ar
    16    29    30   ar
    17    30    31   ar
    18    31    32    1
    19    31    33   ar
    20    33    34    1
    21    24    25    1
    22    25    26    1
    23     7     8   ar
    24     8     9   ar
    25     9    12    1
    26    12    13   ar
    27    13    14   ar
    28    14    15   ar
    29    15    16   ar
    30    16    17   ar
    31     9    10   ar
    32    10    11    1
    33    10     6   ar
    34    26    21    1
    35    17    12   ar
    36    33    27   ar
    37     3     4    1
@<TRIPOS>MOLECULE
*****
 34 37 0 0 0
SMALL
GASTEIGER

@<TRIPOS>ATOM
      1 C         138.6283  139.6065  167.6907 C.2     1  UNL1        0.2470
      2 O         137.6051  138.7536  168.3804 O.2     1  UNL1       -0.2701
      3 N         139.5586  140.4625  168.4981 N.am    1  UNL1       -0.3008
      4 H         140.2301  141.0223  168.0454 H       1  UNL1        0.1497
      5 C         138.2256  137.0147  165.7490 C.3     1  UNL1        0.0502
      6 C         138.5360  138.4122  165.3011 C.ar    1  UNL1        0.0418
      7 C         138.7211  139.6035  166.1935 C.ar    1  UNL1        0.0664
      8 C         139.0153  140.7913  165.3260 C.ar    1  UNL1        0.0228
      9 C         139.0120  140.3341  163.8974 C.ar    1  UNL1        0.0598
     10 N         138.7158  138.8636  163.8820 N.ar    1  UNL1       -0.3285
     11 C         138.6168  137.9969  162.6618 C.3     1  UNL1        0.1301
     12 C         139.2612  141.1959  162.6953 C.ar    1  UNL1        0.0158
     13 C         140.6592  141.3866  162.1859 C.ar    1  UNL1        0.0014
     14 C         140.9084  142.2484  160.9838 C.ar    1  UNL1        0.0000
     15 C         139.7596  142.9195  160.2910 C.ar    1  UNL1        0.0000
     16 C         138.3617  142.7289  160.8003 C.ar    1  UNL1        0.0000
     17 C         138.1125  141.8670  162.0024 C.ar    1  UNL1        0.0014
     18 C         139.4657  140.4655  169.9952 C.3     1  UNL1        0.0911
     19 C         140.5682  141.0693  170.8138 C.3     1  UNL1        0.0386
     20 C         142.0002  140.8153  170.4469 C.3     1  UNL1        0.0739
     21 N         142.3899  140.6643  169.0062 N.3     1  UNL1       -0.2697
     22 C         142.4872  141.8741  168.1248 C.3     1  UNL1        0.0938
     23 C         142.8769  141.7231  166.6843 C.3     1  UNL1        0.1081
     24 N         143.1693  140.3622  166.1251 N.pl3   1  UNL1       -0.3040
     25 C         143.0720  139.1524  167.0065 C.3     1  UNL1        0.1081
     26 C         142.6823  139.3035  168.4470 C.3     1  UNL1        0.0938
     27 C         143.5590  140.2113  164.6844 C.ar    1  UNL1        0.0594
     28 C         144.5209  141.1795  164.0623 C.ar    1  UNL1        0.0154
     29 C         144.9106  141.0285  162.6216 C.ar    1  UNL1        0.0022
     30 C         144.3383  139.9093  161.8032 C.ar    1  UNL1        0.0123
     31 C         143.3763  138.9410  162.4254 C.ar    1  UNL1        0.0694
     32 CL        142.8040  137.8218  161.6070 Cl      1  UNL1       -0.0813
     33 C         142.9867  139.0920  163.8660 C.ar    1  UNL1        0.0815
     34 CL        142.0247  138.1238  164.4883 Cl      1  UNL1       -0.0801
@<TRIPOS>BOND
     1     5     6    1
     2     6     7   ar
     3     7     1    1
     4     1     2    2
     5     1     3   am
     6     3    18    1
     7    18    19    1
     8    19    20    1
     9    20    21    1
    10    21    22    1
    11    22    23    1
    12    23    24    1
    13    24    27    1
    14    27    28   ar
    15    28    29   ar
    16    29    30   ar
    17    30    31   ar
    18    31    32    1
    19    31    33   ar
    20    33    34    1
    21    24    25    1
    22    25    26    1
    23     7     8   ar
    24     8     9   ar
    25     9    12    1
    26    12    13   ar
    27    13    14   ar
    28    14    15   ar
    29    15    16   ar
    30    16    17   ar
    31     9    10   ar
    32    10    11    1
    33    10     6   ar
    34    26    21    1
    35    17    12   ar
    36    33    27   ar
    37     3     4    1
@<TRIPOS>MOLECULE
*****
 34 37 0 0 0
SMALL
GASTEIGER

@<TRIPOS>ATOM
      1 C         142.8200  138.9176  166.9641 C.2     1  UNL1        0.2470
      2 O         143.9359  137.9878  167.3384 O.2     1  UNL1       -0.2701
      3 N         142.1047  139.6971  168.0275 N.am    1  UNL1       -0.3008
      4 H         141.3723  140.3074  167.7818 H       1  UNL1        0.1497
      5 C         144.8517  139.1533  164.4212 C.3     1  UNL1        0.0502
      6 C         143.3533  139.1764  164.3576 C.ar    1  UNL1        0.0418
      7 C         142.4194  139.0680  165.5264 C.ar    1  UNL1        0.0664
      8 C         141.0145  139.1365  165.0051 C.ar    1  UNL1        0.0228
      9 C         141.0801  139.2872  163.5141 C.ar    1  UNL1        0.0598
     10 N         142.5256  139.3118  163.1139 N.ar    1  UNL1       -0.3285
     11 C         143.0511  139.4480  161.7156 C.3     1  UNL1        0.1301
     12 C         139.9065  139.3944  162.5863 C.ar    1  UNL1        0.0158
     13 C         139.7723  140.5828  161.6809 C.ar    1  UNL1        0.0014
     14 C         138.5986  140.6900  160.7531 C.ar    1  UNL1        0.0000
     15 C         137.5591  139.6088  160.7306 C.ar    1  UNL1        0.0000
     16 C         137.6932  138.4204  161.6360 C.ar    1  UNL1        0.0000
     17 C         138.8669  138.3132  162.5638 C.ar    1  UNL1        0.0014
     18 C         142.5054  139.5466  169.4651 C.3     1  UNL1        0.0911
     19 C         143.3166  140.6168  170.1336 C.3     1  UNL1        0.0386
     20 C         143.3095  142.0141  169.5882 C.3     1  UNL1        0.0739
     21 N         142.4406  142.3567  168.4144 N.3     1  UNL1       -0.2697
     22 C         143.0135  142.3442  167.0282 C.3     1  UNL1        0.0938
     23 C         142.1446  142.6869  165.8545 C.3     1  UNL1        0.1081
     24 N         140.7028  143.0420  166.0671 N.pl3   1  UNL1       -0.3040
     25 C         140.1300  143.0545  167.4533 C.3     1  UNL1        0.1081
     26 C         140.9989  142.7119  168.6269 C.3     1  UNL1        0.0938
     27 C         139.8339  143.3846  164.8933 C.ar    1  UNL1        0.0594
     28 C         138.5425  142.6529  164.6772 C.ar    1  UNL1        0.0154
     29 C         137.6736  142.9955  163.5034 C.ar    1  UNL1        0.0022
     30 C         138.0962  144.0699  162.5458 C.ar    1  UNL1        0.0123
     31 C         139.3877  144.8017  162.7619 C.ar    1  UNL1        0.0694
     32 CL        139.8103  145.8761  161.8043 Cl      1  UNL1       -0.0813
     33 C         140.2565  144.4590  163.9356 C.ar    1  UNL1        0.0815
     34 CL        141.5480  145.1908  164.1518 Cl      1  UNL1       -0.0801
@<TRIPOS>BOND
     1     5     6    1
     2     6     7   ar
     3     7     1    1
     4     1     2    2
     5     1     3   am
     6     3    18    1
     7    18    19    1
     8    19    20    1
     9    20    21    1
    10    21    22    1
    11    22    23    1
    12    23    24    1
    13    24    27    1
    14    27    28   ar
    15    28    29   ar
    16    29    30   ar
    17    30    31   ar
    18    31    32    1
    19    31    33   ar
    20    33    34    1
    21    24    25    1
    22    25    26    1
    23     7     8   ar
    24     8     9   ar
    25     9    12    1
    26    12    13   ar
    27    13    14   ar
    28    14    15   ar
    29    15    16   ar
    30    16    17   ar
    31     9    10   ar
    32    10    11    1
    33    10     6   ar
    34    26    21    1
    35    17    12   ar
    36    33    27   ar
    37     3     4    1
@<TRIPOS>MOLECULE
*****
 34 37 0 0 0
SMALL
GASTEIGER

@<TRIPOS>ATOM
      1 C         139.8241  143.5900  159.9349 C.2     1  UNL1        0.2470
      2 O         141.0662  144.2278  159.3870 O.2     1  UNL1       -0.2701
      3 N         138.7735  143.0688  158.9998 N.am    1  UNL1       -0.3008
      4 H         137.9582  142.6502  159.3595 H       1  UNL1        0.1497
      5 C         139.4150  146.0692  162.0173 C.3     1  UNL1        0.0502
      6 C         139.4446  144.6128  162.3752 C.ar    1  UNL1        0.0418
      7 C         139.6326  143.4733  161.4181 C.ar    1  UNL1        0.0664
      8 C         139.5956  142.1965  162.2046 C.ar    1  UNL1        0.0228
      9 C         139.3847  142.5469  163.6477 C.ar    1  UNL1        0.0598
     10 N         139.2914  144.0403  163.7532 N.ar    1  UNL1       -0.3285
     11 C         139.0816  144.8237  165.0151 C.3     1  UNL1        0.1301
     12 C         139.2846  141.5747  164.7856 C.ar    1  UNL1        0.0158
     13 C         140.1596  141.7404  165.9927 C.ar    1  UNL1        0.0014
     14 C         140.0595  140.7682  167.1306 C.ar    1  UNL1        0.0000
     15 C         139.0846  139.6303  167.0614 C.ar    1  UNL1        0.0000
     16 C         138.2096  139.4647  165.8543 C.ar    1  UNL1        0.0000
     17 C         138.3097  140.4369  164.7164 C.ar    1  UNL1        0.0014
     18 C         138.9650  143.1855  157.5167 C.3     1  UNL1        0.0911
     19 C         138.8772  141.9639  156.6507 C.3     1  UNL1        0.0386
     20 C         139.8616  140.8462  156.8284 C.3     1  UNL1        0.0739
     21 N         140.1996  140.3562  158.2053 N.3     1  UNL1       -0.2697
     22 C         139.1678  139.6314  159.0177 C.3     1  UNL1        0.0938
     23 C         139.5058  139.1414  160.3945 C.3     1  UNL1        0.1081
     24 N         140.8756  139.3764  160.9590 N.pl3   1  UNL1       -0.3040
     25 C         141.9073  140.1013  160.1466 C.3     1  UNL1        0.1081
     26 C         141.5693  140.5912  158.7698 C.3     1  UNL1        0.0938
     27 C         141.2135  138.8864  162.3359 C.ar    1  UNL1        0.0594
     28 C         140.6388  137.5936  162.8339 C.ar    1  UNL1        0.0154
     29 C         140.9767  137.1036  164.2109 C.ar    1  UNL1        0.0022
     30 C         141.8894  137.9066  165.0896 C.ar    1  UNL1        0.0123
     31 C         142.4642  139.1995  164.5915 C.ar    1  UNL1        0.0694
     32 CL        143.3769  140.0024  165.4702 Cl      1  UNL1       -0.0813
     33 C         142.1262  139.6894  163.2146 C.ar    1  UNL1        0.0815
     34 CL        142.7010  140.9823  162.7165 Cl      1  UNL1       -0.0801
@<TRIPOS>BOND
     1     5     6    1
     2     6     7   ar
     3     7     1    1
     4     1     2    2
     5     1     3   am
     6     3    18    1
     7    18    19    1
     8    19    20    1
     9    20    21    1
    10    21    22    1
    11    22    23    1
    12    23    24    1
    13    24    27    1
    14    27    28   ar
    15    28    29   ar
    16    29    30   ar
    17    30    31   ar
    18    31    32    1
    19    31    33   ar
    20    33    34    1
    21    24    25    1
    22    25    26    1
    23     7     8   ar
    24     8     9   ar
    25     9    12    1
    26    12    13   ar
    27    13    14   ar
    28    14    15   ar
    29    15    16   ar
    30    16    17   ar
    31     9    10   ar
    32    10    11    1
    33    10     6   ar
    34    26    21    1
    35    17    12   ar
    36    33    27   ar
    37     3     4    1
@<TRIPOS>MOLECULE
*****
 34 37 0 0 0
SMALL
GASTEIGER

@<TRIPOS>ATOM
      1 C         140.2577  139.2006  158.7011 C.2     1  UNL1        0.2470
      2 O         139.3126  138.3438  157.9119 O.2     1  UNL1       -0.2701
      3 N         141.0085  140.3088  158.0243 N.am    1  UNL1       -0.3008
      4 H         141.6288  140.8712  158.5422 H       1  UNL1        0.1497
      5 C         143.0597  138.3617  160.1486 C.3     1  UNL1        0.0502
      6 C         141.7399  138.5635  160.8324 C.ar    1  UNL1        0.0418
      7 C         140.4520  138.9491  160.1671 C.ar    1  UNL1        0.0664
      8 C         139.3925  139.0390  161.2251 C.ar    1  UNL1        0.0228
      9 C         140.0255  138.7090  162.5443 C.ar    1  UNL1        0.0598
     10 N         141.4764  138.4151  162.3016 N.ar    1  UNL1       -0.3285
     11 C         142.4863  138.0389  163.3449 C.3     1  UNL1        0.1301
     12 C         139.3300  138.6782  163.8729 C.ar    1  UNL1        0.0158
     13 C         138.8930  139.9587  164.5205 C.ar    1  UNL1        0.0014
     14 C         138.1974  139.9280  165.8491 C.ar    1  UNL1        0.0000
     15 C         137.9388  138.6167  166.5301 C.ar    1  UNL1        0.0000
     16 C         138.3758  137.3362  165.8825 C.ar    1  UNL1        0.0000
     17 C         139.0714  137.3670  164.5539 C.ar    1  UNL1        0.0014
     18 C         140.8142  140.5603  156.5584 C.3     1  UNL1        0.0911
     19 C         139.6369  141.3598  156.0841 C.3     1  UNL1        0.0386
     20 C         139.3805  142.7250  156.6501 C.3     1  UNL1        0.0739
     21 N         139.3913  142.9354  158.1353 N.3     1  UNL1       -0.2697
     22 C         138.3889  142.2303  159.0000 C.3     1  UNL1        0.0938
     23 C         138.3997  142.4407  160.4851 C.3     1  UNL1        0.1081
     24 N         139.4131  143.3563  161.1055 N.pl3   1  UNL1       -0.3040
     25 C         140.4155  144.0615  160.2407 C.3     1  UNL1        0.1081
     26 C         140.4046  143.8511  158.7557 C.3     1  UNL1        0.0938
     27 C         139.4239  143.5667  162.5907 C.ar    1  UNL1        0.0594
     28 C         138.3462  144.3830  163.2404 C.ar    1  UNL1        0.0154
     29 C         138.3571  144.5934  164.7256 C.ar    1  UNL1        0.0022
     30 C         139.4457  143.9875  165.5609 C.ar    1  UNL1        0.0123
     31 C         140.5234  143.1712  164.9111 C.ar    1  UNL1        0.0694
     32 CL        141.6120  142.5653  165.7465 Cl      1  UNL1       -0.0813
     33 C         140.5125  142.9608  163.4260 C.ar    1  UNL1        0.0815
     34 CL        141.5902  142.1445  162.7762 Cl      1  UNL1       -0.0801
@<TRIPOS>BOND
     1     5     6    1
     2     6     7   ar
     3     7     1    1
     4     1     2    2
     5     1     3   am
     6     3    18    1
     7    18    19    1
     8    19    20    1
     9    20    21    1
    10    21    22    1
    11    22    23    1
    12    23    24    1
    13    24    27    1
    14    27    28   ar
    15    28    29   ar
    16    29    30   ar
    17    30    31   ar
    18    31    32    1
    19    31    33   ar
    20    33    34    1
    21    24    25    1
    22    25    26    1
    23     7     8   ar
    24     8     9   ar
    25     9    12    1
    26    12    13   ar
    27    13    14   ar
    28    14    15   ar
    29    15    16   ar
    30    16    17   ar
    31     9    10   ar
    32    10    11    1
    33    10     6   ar
    34    26    21    1
    35    17    12   ar
    36    33    27   ar
    37     3     4    1
@<TRIPOS>MOLECULE
*****
 34 37 0 0 0
SMALL
GASTEIGER

@<TRIPOS>ATOM
      1 C         142.8841  139.2882  160.1435 C.2     1  UNL1        0.2470
      2 O         144.1500  138.5818  160.5289 O.2     1  UNL1       -0.2701
      3 N         142.8596  140.1782  158.9363 N.am    1  UNL1       -0.3008
      4 H         142.0287  140.6418  158.6834 H       1  UNL1        0.1497
      5 C         139.9292  138.4993  159.0052 C.3     1  UNL1        0.0502
      6 C         140.2845  138.7420  160.4421 C.ar    1  UNL1        0.0418
      7 C         141.6427  139.1047  160.9654 C.ar    1  UNL1        0.0664
      8 C         141.5416  139.2515  162.4548 C.ar    1  UNL1        0.0228
      9 C         140.1210  138.9796  162.8520 C.ar    1  UNL1        0.0598
     10 N         139.3440  138.6647  161.6081 N.ar    1  UNL1       -0.3285
     11 C         137.8831  138.3312  161.5418 C.3     1  UNL1        0.1301
     12 C         139.5734  139.0162  164.2480 C.ar    1  UNL1        0.0158
     13 C         138.8356  137.8305  164.7955 C.ar    1  UNL1        0.0014
     14 C         138.2880  137.8671  166.1915 C.ar    1  UNL1        0.0000
     15 C         138.4783  139.0894  167.0400 C.ar    1  UNL1        0.0000
     16 C         139.2161  140.2750  166.4925 C.ar    1  UNL1        0.0000
     17 C         139.7637  140.2385  165.0965 C.ar    1  UNL1        0.0014
     18 C         144.1009  140.3617  158.1146 C.3     1  UNL1        0.0911
     19 C         144.5149  141.7357  157.6778 C.3     1  UNL1        0.0386
     20 C         144.3871  142.8935  158.6229 C.3     1  UNL1        0.0739
     21 N         143.2364  142.9541  159.5833 N.3     1  UNL1       -0.2697
     22 C         143.4643  142.6992  161.0438 C.3     1  UNL1        0.0938
     23 C         142.3137  142.7599  162.0042 C.3     1  UNL1        0.1081
     24 N         140.9352  143.0755  161.5040 N.pl3   1  UNL1       -0.3040
     25 C         140.7073  143.3304  160.0436 C.3     1  UNL1        0.1081
     26 C         141.8579  143.2697  159.0832 C.3     1  UNL1        0.0938
     27 C         139.7845  143.1361  162.4645 C.ar    1  UNL1        0.0594
     28 C         138.5982  142.2387  162.2713 C.ar    1  UNL1        0.0154
     29 C         137.4476  142.2994  163.2318 C.ar    1  UNL1        0.0022
     30 C         137.4832  143.2575  164.3853 C.ar    1  UNL1        0.0123
     31 C         138.6696  144.1550  164.5785 C.ar    1  UNL1        0.0694
     32 CL        138.7053  145.1131  165.7320 Cl      1  UNL1       -0.0813
     33 C         139.8202  144.0943  163.6181 C.ar    1  UNL1        0.0815
     34 CL        141.0065  144.9917  163.8112 Cl      1  UNL1       -0.0801
@<TRIPOS>BOND
     1     5     6    1
     2     6     7   ar
     3     7     1    1
     4     1     2    2
     5     1     3   am
     6     3    18    1
     7    18    19    1
     8    19    20    1
     9    20    21    1
    10    21    22    1
    11    22    23    1
    12    23    24    1
    13    24    27    1
    14    27    28   ar
    15    28    29   ar
    16    29    30   ar
    17    30    31   ar
    18    31    32    1
    19    31    33   ar
    20    33    34    1
    21    24    25    1
    22    25    26    1
    23     7     8   ar
    24     8     9   ar
    25     9    12    1
    26    12    13   ar
    27    13    14   ar
    28    14    15   ar
    29    15    16   ar
    30    16    17   ar
    31     9    10   ar
    32    10    11    1
    33    10     6   ar
    34    26    21    1
    35    17    12   ar
    36    33    27   ar
    37     3     4    1
