@<TRIPOS>MOLECULE
*****
 29 33 0 0 0
SMALL
GASTEIGER

@<TRIPOS>ATOM
      1 C         141.5583  143.3912  162.8878 C.ar    1  UNL1        0.0884
      2 C         142.8582  143.7612  163.5383 C.ar    1  UNL1        0.0197
      3 C         143.3405  142.9994  164.7371 C.ar    1  UNL1        0.0030
      4 C         142.5229  141.8676  165.2852 C.ar    1  UNL1        0.0174
      5 C         143.0053  141.1058  166.4840 C.ar    1  UNL1       -0.0027
      6 C         142.1876  139.9740  167.0322 C.ar    1  UNL1       -0.0207
      7 C         140.8877  139.6039  166.3816 C.ar    1  UNL1       -0.0027
      8 C         140.4054  140.3657  165.1828 C.ar    1  UNL1        0.0188
      9 C         141.2230  141.4976  164.6347 C.ar    1  UNL1        0.0812
     10 N         140.7407  142.2594  163.4359 N.ar    1  UNL1       -0.2448
     11 C         138.9980  145.4129  162.8024 C.3     1  UNL1        0.0527
     12 C         139.8991  145.0822  161.6497 C.ar    1  UNL1        0.0674
     13 N         139.7816  145.6228  160.2555 N.ar    1  UNL1       -0.2421
     14 C         140.8859  145.0276  159.4329 C.ar    1  UNL1        0.1163
     15 S         141.6858  144.1192  160.3189 S.2     1  UNL1       -0.0648
     16 C         141.0760  144.1530  161.6890 C.ar    1  UNL1        0.0620
     17 C         141.1447  145.2941  157.9797 C.ar    1  UNL1        0.0532
     18 C         140.3138  146.1607  157.0806 C.ar    1  UNL1        0.0090
     19 C         140.9355  146.1429  155.7156 C.ar    1  UNL1        0.0076
     20 C         142.1506  145.2653  155.7711 C.ar    1  UNL1        0.0355
     21 S         142.2799  144.7406  157.1705 S.2     1  UNL1       -0.0844
     22 C         142.6699  139.2122  168.2309 C.3     1  UNL1        0.0437
     23 C         142.3007  139.6719  169.6102 C.3     1  UNL1        0.0768
     24 N         141.6882  141.0264  169.8104 N.3     1  UNL1       -0.2737
     25 C         140.2241  141.3196  169.9537 C.3     1  UNL1        0.0721
     26 C         140.0632  142.8000  170.1343 C.3     1  UNL1        0.0187
     27 C         141.4280  143.4217  170.1025 C.3     1  UNL1        0.0174
     28 C         142.4322  142.3256  169.9023 C.3     1  UNL1        0.0576
     29 C         143.9194  142.4984  169.8102 C.3     1  UNL1        0.0173
@<TRIPOS>BOND
     1    11    12    1
     2    12    13   ar
     3    13    14   ar
     4    14    17    1
     5    17    18   ar
     6    18    19   ar
     7    19    20   ar
     8    20    21   ar
     9    14    15   ar
    10    15    16   ar
    11    16     1    1
    12     1     2   ar
    13     2     3   ar
    14     3     4   ar
    15     4     5   ar
    16     5     6   ar
    17     6    22    1
    18    22    23    1
    19    23    24    1
    20    24    25    1
    21    25    26    1
    22    26    27    1
    23    27    28    1
    24    28    29    1
    25     6     7   ar
    26     7     8   ar
    27     8     9   ar
    28     9    10   ar
    29    16    12   ar
    30    10     1   ar
    31    21    17   ar
    32     9     4   ar
    33    28    24    1
@<TRIPOS>MOLECULE
*****
 29 33 0 0 0
SMALL
GASTEIGER

@<TRIPOS>ATOM
      1 C         141.7159  138.5804  159.4445 C.ar    1  UNL1        0.0884
      2 C         140.2293  138.6423  159.2540 C.ar    1  UNL1        0.0197
      3 C         139.3138  138.4217  160.4214 C.ar    1  UNL1        0.0030
      4 C         139.8847  138.1391  161.7794 C.ar    1  UNL1        0.0174
      5 C         138.9690  137.9184  162.9469 C.ar    1  UNL1       -0.0027
      6 C         139.5400  137.6358  164.3049 C.ar    1  UNL1       -0.0207
      7 C         141.0266  137.5738  164.4954 C.ar    1  UNL1       -0.0027
      8 C         141.9422  137.7945  163.3279 C.ar    1  UNL1        0.0188
      9 C         141.3712  138.0771  161.9699 C.ar    1  UNL1        0.0812
     10 N         142.2868  138.2978  160.8025 N.ar    1  UNL1       -0.2448
     11 C         142.1851  136.5193  156.9582 C.3     1  UNL1        0.0527
     12 C         142.8472  137.8537  157.1343 C.ar    1  UNL1        0.0674
     13 N         143.8412  138.4749  156.1984 N.ar    1  UNL1       -0.2421
     14 C         144.2399  139.8064  156.7627 C.ar    1  UNL1        0.1163
     15 S         143.4923  140.0079  158.0474 S.2     1  UNL1       -0.0648
     16 C         142.6315  138.8010  158.2770 C.ar    1  UNL1        0.0620
     17 C         145.2150  140.7675  156.1500 C.ar    1  UNL1        0.0532
     18 C         145.9361  141.8696  156.8679 C.ar    1  UNL1        0.0090
     19 C         146.8070  142.5784  155.8733 C.ar    1  UNL1        0.0076
     20 C         146.6241  141.9144  154.5408 C.ar    1  UNL1        0.0355
     21 S         145.6402  140.7951  154.7118 S.2     1  UNL1       -0.0844
     22 C         138.6244  137.4151  165.4723 C.3     1  UNL1        0.0437
     23 C         138.0906  138.5886  166.2391 C.3     1  UNL1        0.0768
     24 N         138.9407  139.8097  166.4295 N.3     1  UNL1       -0.2737
     25 C         139.9193  140.0378  167.5433 C.3     1  UNL1        0.0721
     26 C         140.5449  141.3861  167.3417 C.3     1  UNL1        0.0187
     27 C         139.9530  141.9912  166.1033 C.3     1  UNL1        0.0174
     28 C         138.9616  141.0170  165.5396 C.3     1  UNL1        0.0576
     29 C         138.1360  141.2152  164.3030 C.3     1  UNL1        0.0173
@<TRIPOS>BOND
     1    11    12    1
     2    12    13   ar
     3    13    14   ar
     4    14    17    1
     5    17    18   ar
     6    18    19   ar
     7    19    20   ar
     8    20    21   ar
     9    14    15   ar
    10    15    16   ar
    11    16     1    1
    12     1     2   ar
    13     2     3   ar
    14     3     4   ar
    15     4     5   ar
    16     5     6   ar
    17     6    22    1
    18    22    23    1
    19    23    24    1
    20    24    25    1
    21    25    26    1
    22    26    27    1
    23    27    28    1
    24    28    29    1
    25     6     7   ar
    26     7     8   ar
    27     8     9   ar
    28     9    10   ar
    29    16    12   ar
    30    10     1   ar
    31    21    17   ar
    32     9     4   ar
    33    28    24    1
@<TRIPOS>MOLECULE
*****
 29 33 0 0 0
SMALL
GASTEIGER

@<TRIPOS>ATOM
      1 C         139.2988  141.0212  163.5641 C.ar    1  UNL1        0.0884
      2 C         138.2441  140.6268  164.5551 C.ar    1  UNL1        0.0197
      3 C         138.6390  140.1632  165.9259 C.ar    1  UNL1        0.0030
      4 C         140.0885  140.0941  166.3057 C.ar    1  UNL1        0.0174
      5 C         140.4833  139.6306  167.6766 C.ar    1  UNL1       -0.0027
      6 C         141.9327  139.5615  168.0564 C.ar    1  UNL1       -0.0207
      7 C         142.9874  139.9560  167.0653 C.ar    1  UNL1       -0.0027
      8 C         142.5926  140.4195  165.6945 C.ar    1  UNL1        0.0188
      9 C         141.1431  140.4886  165.3147 C.ar    1  UNL1        0.0812
     10 N         140.7482  140.9521  163.9439 N.ar    1  UNL1       -0.2448
     11 C         137.9395  143.8954  162.8284 C.3     1  UNL1        0.0527
     12 C         138.2792  142.8058  161.8551 C.ar    1  UNL1        0.0674
     13 N         138.0537  142.8461  160.3727 N.ar    1  UNL1       -0.2421
     14 C         138.5392  141.5499  159.7945 C.ar    1  UNL1        0.1163
     15 S         139.0646  140.7085  160.9197 S.2     1  UNL1       -0.0648
     16 C         138.9039  141.4848  162.1932 C.ar    1  UNL1        0.0620
     17 C         138.5051  141.1630  158.3457 C.ar    1  UNL1        0.0532
     18 C         139.4258  140.1897  157.6712 C.ar    1  UNL1        0.0090
     19 C         139.0341  140.1066  156.2257 C.ar    1  UNL1        0.0076
     20 C         137.8713  141.0286  156.0068 C.ar    1  UNL1        0.0355
     21 S         137.5444  141.6815  157.3171 S.2     1  UNL1       -0.0844
     22 C         142.3276  139.0980  169.4273 C.3     1  UNL1        0.0437
     23 C         142.0602  139.9684  170.6193 C.3     1  UNL1        0.0768
     24 N         141.5347  141.3604  170.4288 N.3     1  UNL1       -0.2737
     25 C         140.1089  141.7951  170.5962 C.3     1  UNL1        0.0721
     26 C         140.0357  143.2654  170.3083 C.3     1  UNL1        0.0187
     27 C         141.4164  143.7393  169.9630 C.3     1  UNL1        0.0174
     28 C         142.3428  142.5620  170.0375 C.3     1  UNL1        0.0576
     29 C         143.8182  142.5826  169.7680 C.3     1  UNL1        0.0173
@<TRIPOS>BOND
     1    11    12    1
     2    12    13   ar
     3    13    14   ar
     4    14    17    1
     5    17    18   ar
     6    18    19   ar
     7    19    20   ar
     8    20    21   ar
     9    14    15   ar
    10    15    16   ar
    11    16     1    1
    12     1     2   ar
    13     2     3   ar
    14     3     4   ar
    15     4     5   ar
    16     5     6   ar
    17     6    22    1
    18    22    23    1
    19    23    24    1
    20    24    25    1
    21    25    26    1
    22    26    27    1
    23    27    28    1
    24    28    29    1
    25     6     7   ar
    26     7     8   ar
    27     8     9   ar
    28     9    10   ar
    29    16    12   ar
    30    10     1   ar
    31    21    17   ar
    32     9     4   ar
    33    28    24    1
@<TRIPOS>MOLECULE
*****
 29 33 0 0 0
SMALL
GASTEIGER

@<TRIPOS>ATOM
      1 C         142.8532  138.4995  159.9280 C.ar    1  UNL1        0.0884
      2 C         144.0187  139.3352  160.3675 C.ar    1  UNL1        0.0197
      3 C         144.2926  139.5305  161.8292 C.ar    1  UNL1        0.0030
      4 C         143.4010  138.8901  162.8515 C.ar    1  UNL1        0.0174
      5 C         143.6750  139.0855  164.3133 C.ar    1  UNL1       -0.0027
      6 C         142.7834  138.4451  165.3356 C.ar    1  UNL1       -0.0207
      7 C         141.6179  137.6094  164.8960 C.ar    1  UNL1       -0.0027
      8 C         141.3440  137.4141  163.4343 C.ar    1  UNL1        0.0188
      9 C         142.2355  138.0544  162.4120 C.ar    1  UNL1        0.0812
     10 N         141.9616  137.8591  160.9503 N.ar    1  UNL1       -0.2448
     11 C         142.0112  140.8312  157.8057 C.3     1  UNL1        0.0527
     12 C         142.1922  139.3758  157.4907 C.ar    1  UNL1        0.0674
     13 N         142.0180  138.7368  156.1449 N.ar    1  UNL1       -0.2421
     14 C         142.2973  137.2700  156.2886 C.ar    1  UNL1        0.1163
     15 S         142.6442  137.0026  157.7232 S.2     1  UNL1       -0.0648
     16 C         142.5792  138.3041  158.4662 C.ar    1  UNL1        0.0620
     17 C         142.2398  136.2498  155.1905 C.ar    1  UNL1        0.0532
     18 C         142.8391  134.8754  155.2317 C.ar    1  UNL1        0.0090
     19 C         142.5427  134.2010  153.9251 C.ar    1  UNL1        0.0076
     20 C         141.7602  135.1587  153.0763 C.ar    1  UNL1        0.0355
     21 S         141.5730  136.4250  153.8584 S.2     1  UNL1       -0.0844
     22 C         143.0574  138.6405  166.7974 C.3     1  UNL1        0.0437
     23 C         142.7191  139.9450  167.4561 C.3     1  UNL1        0.0768
     24 N         141.5596  140.0281  168.4040 N.3     1  UNL1       -0.2737
     25 C         141.6378  139.9619  169.9005 C.3     1  UNL1        0.0721
     26 C         140.2449  140.0849  170.4433 C.3     1  UNL1        0.0187
     27 C         139.3058  140.2272  169.2822 C.3     1  UNL1        0.0174
     28 C         140.1184  140.1921  168.0219 C.3     1  UNL1        0.0576
     29 C         139.5837  140.3018  166.6248 C.3     1  UNL1        0.0173
@<TRIPOS>BOND
     1    11    12    1
     2    12    13   ar
     3    13    14   ar
     4    14    17    1
     5    17    18   ar
     6    18    19   ar
     7    19    20   ar
     8    20    21   ar
     9    14    15   ar
    10    15    16   ar
    11    16     1    1
    12     1     2   ar
    13     2     3   ar
    14     3     4   ar
    15     4     5   ar
    16     5     6   ar
    17     6    22    1
    18    22    23    1
    19    23    24    1
    20    24    25    1
    21    25    26    1
    22    26    27    1
    23    27    28    1
    24    28    29    1
    25     6     7   ar
    26     7     8   ar
    27     8     9   ar
    28     9    10   ar
    29    16    12   ar
    30    10     1   ar
    31    21    17   ar
    32     9     4   ar
    33    28    24    1
@<TRIPOS>MOLECULE
*****
 29 33 0 0 0
SMALL
GASTEIGER

@<TRIPOS>ATOM
      1 C         140.1204  140.0280  162.6020 C.ar    1  UNL1        0.0884
      2 C         141.0751  141.0072  163.2183 C.ar    1  UNL1        0.0197
      3 C         141.0664  141.2310  164.7014 C.ar    1  UNL1        0.0030
      4 C         140.1030  140.4756  165.5683 C.ar    1  UNL1        0.0174
      5 C         140.0944  140.6995  167.0515 C.ar    1  UNL1       -0.0027
      6 C         139.1311  139.9441  167.9184 C.ar    1  UNL1       -0.0207
      7 C         138.1764  138.9649  167.3020 C.ar    1  UNL1       -0.0027
      8 C         138.1851  138.7411  165.8189 C.ar    1  UNL1        0.0188
      9 C         139.1484  139.4964  164.9520 C.ar    1  UNL1        0.0812
     10 N         139.1571  139.2726  163.4689 N.ar    1  UNL1       -0.2448
     11 C         138.4327  141.7385  160.3939 C.3     1  UNL1        0.0527
     12 C         139.3533  140.5903  160.1039 C.ar    1  UNL1        0.0674
     13 N         139.6599  140.0268  158.7480 N.ar    1  UNL1       -0.2421
     14 C         140.6251  138.8923  158.9249 C.ar    1  UNL1        0.1163
     15 S         140.9151  138.7547  160.3901 S.2     1  UNL1       -0.0648
     16 C         140.1291  139.8041  161.1188 C.ar    1  UNL1        0.0620
     17 C         141.1995  138.0443  157.8289 C.ar    1  UNL1        0.0532
     18 C         140.4809  137.5997  156.5897 C.ar    1  UNL1        0.0090
     19 C         141.4305  136.7727  155.7747 C.ar    1  UNL1        0.0076
     20 C         142.7361  136.7063  156.5103 C.ar    1  UNL1        0.0355
     21 S         142.5932  137.4922  157.7799 S.2     1  UNL1       -0.0844
     22 C         139.1224  140.1679  169.4015 C.3     1  UNL1        0.0437
     23 C         140.3826  139.9868  170.1948 C.3     1  UNL1        0.0768
     24 N         141.4773  141.0084  170.1071 N.3     1  UNL1       -0.2737
     25 C         142.9352  140.7228  169.8993 C.3     1  UNL1        0.0721
     26 C         143.6654  142.0329  169.8756 C.3     1  UNL1        0.0187
     27 C         142.6588  143.1281  170.0688 C.3     1  UNL1        0.0174
     28 C         141.3065  142.4949  170.2119 C.3     1  UNL1        0.0576
     29 C         140.0110  143.2209  170.4227 C.3     1  UNL1        0.0173
@<TRIPOS>BOND
     1    11    12    1
     2    12    13   ar
     3    13    14   ar
     4    14    17    1
     5    17    18   ar
     6    18    19   ar
     7    19    20   ar
     8    20    21   ar
     9    14    15   ar
    10    15    16   ar
    11    16     1    1
    12     1     2   ar
    13     2     3   ar
    14     3     4   ar
    15     4     5   ar
    16     5     6   ar
    17     6    22    1
    18    22    23    1
    19    23    24    1
    20    24    25    1
    21    25    26    1
    22    26    27    1
    23    27    28    1
    24    28    29    1
    25     6     7   ar
    26     7     8   ar
    27     8     9   ar
    28     9    10   ar
    29    16    12   ar
    30    10     1   ar
    31    21    17   ar
    32     9     4   ar
    33    28    24    1
@<TRIPOS>MOLECULE
*****
 29 33 0 0 0
SMALL
GASTEIGER

@<TRIPOS>ATOM
      1 C         142.6362  138.3060  159.8159 C.ar    1  UNL1        0.0884
      2 C         143.8180  139.1620  160.1632 C.ar    1  UNL1        0.0197
      3 C         144.1607  139.4198  161.6006 C.ar    1  UNL1        0.0030
      4 C         143.3217  138.8216  162.6906 C.ar    1  UNL1        0.0174
      5 C         143.6644  139.0795  164.1280 C.ar    1  UNL1       -0.0027
      6 C         142.8254  138.4813  165.2181 C.ar    1  UNL1       -0.0207
      7 C         141.6436  137.6253  164.8707 C.ar    1  UNL1       -0.0027
      8 C         141.3009  137.3674  163.4334 C.ar    1  UNL1        0.0188
      9 C         142.1399  137.9656  162.3433 C.ar    1  UNL1        0.0812
     10 N         141.7972  137.7078  160.9060 N.ar    1  UNL1       -0.2448
     11 C         141.2208  140.4202  157.7723 C.3     1  UNL1        0.0527
     12 C         141.6429  139.0199  157.4392 C.ar    1  UNL1        0.0674
     13 N         141.4884  138.3455  156.1083 N.ar    1  UNL1       -0.2421
     14 C         142.0436  136.9569  156.2250 C.ar    1  UNL1        0.1163
     15 S         142.5411  136.7731  157.6281 S.2     1  UNL1       -0.0648
     16 C         142.2934  138.0481  158.3785 C.ar    1  UNL1        0.0620
     17 C         142.0926  135.9320  155.1308 C.ar    1  UNL1        0.0532
     18 C         141.7755  136.1709  153.6843 C.ar    1  UNL1        0.0090
     19 C         141.9542  134.8749  152.9505 C.ar    1  UNL1        0.0076
     20 C         142.3817  133.8351  153.9435 C.ar    1  UNL1        0.0355
     21 S         142.4672  134.4885  155.2911 S.2     1  UNL1       -0.0844
     22 C         143.1681  138.7391  166.6554 C.3     1  UNL1        0.0437
     23 C         142.3416  139.6950  167.4638 C.3     1  UNL1        0.0768
     24 N         141.5329  140.7545  166.7758 N.3     1  UNL1       -0.2737
     25 C         140.0466  140.7375  166.5744 C.3     1  UNL1        0.0721
     26 C         139.6636  141.9896  165.8425 C.3     1  UNL1        0.0187
     27 C         140.9133  142.7804  165.5915 C.3     1  UNL1        0.0174
     28 C         142.0686  142.0171  166.1683 C.3     1  UNL1        0.0576
     29 C         143.5069  142.4418  166.1421 C.3     1  UNL1        0.0173
@<TRIPOS>BOND
     1    11    12    1
     2    12    13   ar
     3    13    14   ar
     4    14    17    1
     5    17    18   ar
     6    18    19   ar
     7    19    20   ar
     8    20    21   ar
     9    14    15   ar
    10    15    16   ar
    11    16     1    1
    12     1     2   ar
    13     2     3   ar
    14     3     4   ar
    15     4     5   ar
    16     5     6   ar
    17     6    22    1
    18    22    23    1
    19    23    24    1
    20    24    25    1
    21    25    26    1
    22    26    27    1
    23    27    28    1
    24    28    29    1
    25     6     7   ar
    26     7     8   ar
    27     8     9   ar
    28     9    10   ar
    29    16    12   ar
    30    10     1   ar
    31    21    17   ar
    32     9     4   ar
    33    28    24    1
@<TRIPOS>MOLECULE
*****
 29 33 0 0 0
SMALL
GASTEIGER

@<TRIPOS>ATOM
      1 C         140.2782  144.0907  159.9206 C.ar    1  UNL1        0.0884
      2 C         141.6768  143.7627  160.3519 C.ar    1  UNL1        0.0197
      3 C         141.9624  143.4405  161.7888 C.ar    1  UNL1        0.0030
      4 C         140.8494  143.4465  162.7943 C.ar    1  UNL1        0.0174
      5 C         141.1350  143.1244  164.2313 C.ar    1  UNL1       -0.0027
      6 C         140.0220  143.1304  165.2368 C.ar    1  UNL1       -0.0207
      7 C         138.6233  143.4585  164.8054 C.ar    1  UNL1       -0.0027
      8 C         138.3377  143.7806  163.3685 C.ar    1  UNL1        0.0188
      9 C         139.4507  143.7746  162.3630 C.ar    1  UNL1        0.0812
     10 N         139.1651  144.0967  160.9261 N.ar    1  UNL1       -0.2448
     11 C         138.8113  142.1241  157.7688 C.3     1  UNL1        0.0527
     12 C         139.3183  143.5089  157.4946 C.ar    1  UNL1        0.0674
     13 N         139.2400  144.2329  156.1833 N.ar    1  UNL1       -0.2421
     14 C         139.8659  145.5844  156.3618 C.ar    1  UNL1        0.1163
     15 S         140.3310  145.6956  157.7835 S.2     1  UNL1       -0.0648
     16 C         139.9925  144.4129  158.4837 C.ar    1  UNL1        0.0620
     17 C         140.0027  146.6393  155.3043 C.ar    1  UNL1        0.0532
     18 C         139.3792  148.0032  155.3337 C.ar    1  UNL1        0.0090
     19 C         139.7782  148.7224  154.0793 C.ar    1  UNL1        0.0076
     20 C         140.6483  147.8030  153.2747 C.ar    1  UNL1        0.0355
     21 S         140.7871  146.5155  154.0318 S.2     1  UNL1       -0.0844
     22 C         140.3076  142.8083  166.6737 C.3     1  UNL1        0.0437
     23 C         140.7968  141.4419  167.0531 C.3     1  UNL1        0.0768
     24 N         140.2263  140.2279  166.3820 N.3     1  UNL1       -0.2737
     25 C         138.8426  139.6820  166.5752 C.3     1  UNL1        0.0721
     26 C         138.7004  138.4632  165.7125 C.3     1  UNL1        0.0187
     27 C         139.9963  138.2558  164.9861 C.3     1  UNL1        0.0174
     28 C         140.9393  139.3464  165.3998 C.3     1  UNL1        0.0576
     29 C         142.3481  139.5243  164.9163 C.3     1  UNL1        0.0173
@<TRIPOS>BOND
     1    11    12    1
     2    12    13   ar
     3    13    14   ar
     4    14    17    1
     5    17    18   ar
     6    18    19   ar
     7    19    20   ar
     8    20    21   ar
     9    14    15   ar
    10    15    16   ar
    11    16     1    1
    12     1     2   ar
    13     2     3   ar
    14     3     4   ar
    15     4     5   ar
    16     5     6   ar
    17     6    22    1
    18    22    23    1
    19    23    24    1
    20    24    25    1
    21    25    26    1
    22    26    27    1
    23    27    28    1
    24    28    29    1
    25     6     7   ar
    26     7     8   ar
    27     8     9   ar
    28     9    10   ar
    29    16    12   ar
    30    10     1   ar
    31    21    17   ar
    32     9     4   ar
    33    28    24    1
@<TRIPOS>MOLECULE
*****
 29 33 0 0 0
SMALL
GASTEIGER

@<TRIPOS>ATOM
      1 C         140.6198  142.9309  162.1419 C.ar    1  UNL1        0.0884
      2 C         139.6132  141.8558  162.4262 C.ar    1  UNL1        0.0197
      3 C         139.7924  140.9554  163.6123 C.ar    1  UNL1        0.0030
      4 C         140.9783  141.1300  164.5141 C.ar    1  UNL1        0.0174
      5 C         141.1575  140.2294  165.7003 C.ar    1  UNL1       -0.0027
      6 C         142.3434  140.4040  166.6021 C.ar    1  UNL1       -0.0207
      7 C         143.3500  141.4792  166.3177 C.ar    1  UNL1       -0.0027
      8 C         143.1708  142.3796  165.1316 C.ar    1  UNL1        0.0188
      9 C         141.9849  142.2050  164.2298 C.ar    1  UNL1        0.0812
     10 N         141.8056  143.1055  163.0437 N.ar    1  UNL1       -0.2448
     11 C         139.7226  146.0673  162.2327 C.3     1  UNL1        0.0527
     12 C         140.0282  145.2731  160.9975 C.ar    1  UNL1        0.0674
     13 N         139.9750  145.7810  159.5871 N.ar    1  UNL1       -0.2421
     14 C         140.3545  144.6534  158.6736 C.ar    1  UNL1        0.1163
     15 S         140.6422  143.4485  159.5195 S.2     1  UNL1       -0.0648
     16 C         140.4405  143.8315  160.9557 C.ar    1  UNL1        0.0620
     17 C         140.4326  144.7191  157.1771 C.ar    1  UNL1        0.0532
     18 C         141.5728  145.2759  156.3773 C.ar    1  UNL1        0.0090
     19 C         141.2291  145.1404  154.9236 C.ar    1  UNL1        0.0076
     20 C         139.8763  144.4999  154.8249 C.ar    1  UNL1        0.0355
     21 S         139.3840  144.2394  156.2177 S.2     1  UNL1       -0.0844
     22 C         142.5227  139.5035  167.7882 C.3     1  UNL1        0.0437
     23 C         142.5808  140.0853  169.1696 C.3     1  UNL1        0.0768
     24 N         141.8060  141.3283  169.4931 N.3     1  UNL1       -0.2737
     25 C         142.3845  142.6931  169.7227 C.3     1  UNL1        0.0721
     26 C         141.2528  143.6331  170.0153 C.3     1  UNL1        0.0187
     27 C         139.9748  142.8492  169.9665 C.3     1  UNL1        0.0174
     28 C         140.3168  141.4248  169.6438 C.3     1  UNL1        0.0576
     29 C         139.3408  140.2952  169.4975 C.3     1  UNL1        0.0173
@<TRIPOS>BOND
     1    11    12    1
     2    12    13   ar
     3    13    14   ar
     4    14    17    1
     5    17    18   ar
     6    18    19   ar
     7    19    20   ar
     8    20    21   ar
     9    14    15   ar
    10    15    16   ar
    11    16     1    1
    12     1     2   ar
    13     2     3   ar
    14     3     4   ar
    15     4     5   ar
    16     5     6   ar
    17     6    22    1
    18    22    23    1
    19    23    24    1
    20    24    25    1
    21    25    26    1
    22    26    27    1
    23    27    28    1
    24    28    29    1
    25     6     7   ar
    26     7     8   ar
    27     8     9   ar
    28     9    10   ar
    29    16    12   ar
    30    10     1   ar
    31    21    17   ar
    32     9     4   ar
    33    28    24    1
@<TRIPOS>MOLECULE
*****
 29 33 0 0 0
SMALL
GASTEIGER

@<TRIPOS>ATOM
      1 C         142.7855  138.4263  158.5324 C.ar    1  UNL1        0.0884
      2 C         143.2092  139.8117  158.1437 C.ar    1  UNL1        0.0197
      3 C         143.8245  140.7220  159.1648 C.ar    1  UNL1        0.0030
      4 C         144.0161  140.2469  160.5747 C.ar    1  UNL1        0.0174
      5 C         144.6314  141.1573  161.5958 C.ar    1  UNL1       -0.0027
      6 C         144.8229  140.6822  163.0056 C.ar    1  UNL1       -0.0207
      7 C         144.3991  139.2968  163.3943 C.ar    1  UNL1       -0.0027
      8 C         143.7838  138.3865  162.3732 C.ar    1  UNL1        0.0188
      9 C         143.5923  138.8616  160.9634 C.ar    1  UNL1        0.0812
     10 N         142.9770  137.9513  159.9423 N.ar    1  UNL1       -0.2448
     11 C         139.7454  138.6312  157.3637 C.3     1  UNL1        0.0527
     12 C         140.7728  137.6101  156.9741 C.ar    1  UNL1        0.0674
     13 N         140.5832  136.5039  155.9789 N.ar    1  UNL1       -0.2421
     14 C         141.8634  135.7260  155.9011 C.ar    1  UNL1        0.1163
     15 S         142.8441  136.3515  156.8481 S.2     1  UNL1       -0.0648
     16 C         142.1701  137.5159  157.5113 C.ar    1  UNL1        0.0620
     17 C         142.1181  134.5323  155.0292 C.ar    1  UNL1        0.0532
     18 C         142.7635  133.2483  155.4590 C.ar    1  UNL1        0.0090
     19 C         142.8164  132.3354  154.2699 C.ar    1  UNL1        0.0076
     20 C         142.2036  133.0553  153.1053 C.ar    1  UNL1        0.0355
     21 S         141.7721  134.4131  153.5746 S.2     1  UNL1       -0.0844
     22 C         145.4382  141.5925  164.0268 C.3     1  UNL1        0.0437
     23 C         144.6654  142.7689  164.5455 C.3     1  UNL1        0.0768
     24 N         143.3862  142.5529  165.2984 N.3     1  UNL1       -0.2737
     25 C         143.2590  142.3393  166.7777 C.3     1  UNL1        0.0721
     26 C         141.8037  142.1669  167.0977 C.3     1  UNL1        0.0187
     27 C         141.0315  142.2739  165.8162 C.3     1  UNL1        0.0174
     28 C         142.0095  142.5124  164.7042 C.3     1  UNL1        0.0576
     29 C         141.6703  142.6810  163.2528 C.3     1  UNL1        0.0173
@<TRIPOS>BOND
     1    11    12    1
     2    12    13   ar
     3    13    14   ar
     4    14    17    1
     5    17    18   ar
     6    18    19   ar
     7    19    20   ar
     8    20    21   ar
     9    14    15   ar
    10    15    16   ar
    11    16     1    1
    12     1     2   ar
    13     2     3   ar
    14     3     4   ar
    15     4     5   ar
    16     5     6   ar
    17     6    22    1
    18    22    23    1
    19    23    24    1
    20    24    25    1
    21    25    26    1
    22    26    27    1
    23    27    28    1
    24    28    29    1
    25     6     7   ar
    26     7     8   ar
    27     8     9   ar
    28     9    10   ar
    29    16    12   ar
    30    10     1   ar
    31    21    17   ar
    32     9     4   ar
    33    28    24    1
