@<TRIPOS>MOLECULE
*****
 39 42 0 0 0
SMALL
GASTEIGER

@<TRIPOS>ATOM
      1 N         138.8818  140.1207  165.8642 N.3     1  UNL1       -0.2691
      2 C         140.1378  140.6858  166.4584 C.3     1  UNL1        0.0724
      3 C         140.6128  142.0490  166.0512 C.3     1  UNL1        0.0188
      4 C         139.8318  142.8473  165.0497 C.3     1  UNL1        0.0188
      5 C         138.5758  142.2821  164.4555 C.3     1  UNL1        0.0188
      6 C         138.1008  140.9188  164.8627 C.3     1  UNL1        0.0724
      7 C         138.4068  138.7573  166.2714 C.3     1  UNL1        0.0987
      8 C         137.7005  138.5695  167.5813 C.2     1  UNL1        0.0652
      9 O         138.1484  139.3345  168.7914 O.co2   1  UNL1       -0.5478
     10 O         136.5462  137.6167  167.6812 O.co2   1  UNL1       -0.5478
     11 C         138.6381  137.5819  165.3688 C.3     1  UNL1        0.0480
     12 C         141.2764  138.0099  161.7485 C.ar    1  UNL1        0.1057
     13 C         141.8887  137.8213  163.1047 C.ar    1  UNL1        0.0180
     14 C         141.0093  137.6786  164.3115 C.ar    1  UNL1       -0.0029
     15 C         139.5175  137.7246  164.1620 C.ar    1  UNL1       -0.0204
     16 C         138.9051  137.9132  162.8058 C.ar    1  UNL1       -0.0029
     17 C         139.7846  138.0558  161.5991 C.ar    1  UNL1        0.0180
     18 C         143.0352  138.2952  159.3350 C.3     1  UNL1        0.1816
     19 S         142.1558  138.1525  160.5418 S.O2    1  UNL1        0.0104
     20 O         143.3567  137.8233  161.3780 O.2     1  UNL1       -0.1686
     21 O         140.9548  138.4817  159.7055 O.2     1  UNL1       -0.1686
     22 C         140.3068  144.2105  164.6425 C.3     1  UNL1        0.0721
     23 N         140.6376  144.4916  163.2067 N.3     1  UNL1       -0.2724
     24 C         139.8087  145.4655  162.4229 C.3     1  UNL1        0.0758
     25 C         140.1395  145.7466  160.9871 C.3     1  UNL1        0.0609
     26 C         141.2991  145.0538  160.3351 C.3     1  UNL1        0.1687
     27 C         142.1280  144.0799  161.1189 C.3     1  UNL1        0.0609
     28 C         141.7972  143.7988  162.5547 C.3     1  UNL1        0.0758
     29 O         141.6299  145.3349  158.8993 O.3     1  UNL1       -0.4790
     30 C         140.5855  145.1490  157.8387 C.ar    1  UNL1        0.1392
     31 C         139.9251  143.8138  157.6623 C.ar    1  UNL1        0.0367
     32 C         138.8807  143.6279  156.6018 C.ar    1  UNL1        0.0021
     33 C         138.4968  144.7772  155.7177 C.ar    1  UNL1        0.0177
     34 C         139.1572  146.1124  155.8940 C.ar    1  UNL1        0.0590
     35 CL        138.7732  147.2617  155.0099 Cl      1  UNL1       -0.0824
     36 C         140.2016  146.2983  156.9546 C.ar    1  UNL1        0.0480
     37 C         137.4524  144.5913  154.6571 C.3     1  UNL1        0.1644
     38 O         137.8622  144.3074  153.2424 O.3     1  UNL1       -0.3772
     39 H         138.3267  145.0779  152.8796 H       1  UNL1        0.2109
@<TRIPOS>UNITY_ATOM_ATTR
9 1
charge -1
@<TRIPOS>BOND
     1    18    19    1
     2    19    20    2
     3    19    21    2
     4    19    12    1
     5    12    13   ar
     6    13    14   ar
     7    14    15   ar
     8    15    11    1
     9    11     7    1
    10     7     8    1
    11     8     9   ar
    12     8    10   ar
    13     7     1    1
    14     1     2    1
    15     2     3    1
    16     3     4    1
    17     4    22    1
    18    22    23    1
    19    23    24    1
    20    24    25    1
    21    25    26    1
    22    26    29    1
    23    29    30    1
    24    30    31   ar
    25    31    32   ar
    26    32    33   ar
    27    33    37    1
    28    37    38    1
    29    33    34   ar
    30    34    35    1
    31    34    36   ar
    32    26    27    1
    33    27    28    1
    34     4     5    1
    35     5     6    1
    36    15    16   ar
    37    16    17   ar
    38    17    12   ar
    39     6     1    1
    40    28    23    1
    41    36    30   ar
    42    38    39    1
@<TRIPOS>MOLECULE
*****
 39 42 0 0 0
SMALL
GASTEIGER

@<TRIPOS>ATOM
      1 N         140.8162  139.5839  166.8598 N.3     1  UNL1       -0.2691
      2 C         141.6639  138.9856  165.7766 C.3     1  UNL1        0.0724
      3 C         141.0160  138.3240  164.5965 C.3     1  UNL1        0.0188
      4 C         139.5204  138.2607  164.4997 C.3     1  UNL1        0.0188
      5 C         138.6728  138.8590  165.5830 C.3     1  UNL1        0.0188
      6 C         139.3207  139.5206  166.7631 C.3     1  UNL1        0.0724
      7 C         141.4641  140.2455  168.0399 C.3     1  UNL1        0.0987
      8 C         141.6392  139.4873  169.3222 C.2     1  UNL1        0.0652
      9 O         142.9197  138.7536  169.5909 O.co2   1  UNL1       -0.5478
     10 O         140.5338  139.4627  170.3360 O.co2   1  UNL1       -0.5478
     11 C         141.9369  141.6654  167.9376 C.3     1  UNL1        0.0480
     12 C         140.9212  144.1189  164.3047 C.ar    1  UNL1        0.1057
     13 C         142.3005  143.5518  164.4650 C.ar    1  UNL1        0.0180
     14 C         142.6391  142.7339  165.6760 C.ar    1  UNL1       -0.0029
     15 C         141.5984  142.4832  166.7267 C.ar    1  UNL1       -0.0204
     16 C         140.2190  143.0504  166.5663 C.ar    1  UNL1       -0.0029
     17 C         139.8805  143.8682  165.3553 C.ar    1  UNL1        0.0180
     18 C         140.2441  145.7546  161.8827 C.3     1  UNL1        0.1816
     19 S         140.5827  144.9368  163.0937 S.O2    1  UNL1        0.0104
     20 O         141.9733  144.7352  162.5688 O.2     1  UNL1       -0.1686
     21 O         139.1920  145.1383  163.6186 O.2     1  UNL1       -0.1686
     22 C         138.8726  137.5991  163.3197 C.3     1  UNL1        0.0721
     23 N         138.8200  138.3070  161.9983 N.3     1  UNL1       -0.2724
     24 C         139.8857  138.0597  160.9721 C.3     1  UNL1        0.0758
     25 C         139.8331  138.7676  159.6507 C.3     1  UNL1        0.0609
     26 C         138.7149  139.7228  159.3555 C.3     1  UNL1        0.1687
     27 C         137.6492  139.9701  160.3817 C.3     1  UNL1        0.0609
     28 C         137.7018  139.2621  161.7031 C.3     1  UNL1        0.0758
     29 O         138.6623  140.4307  158.0341 O.3     1  UNL1       -0.4790
     30 C         139.2786  141.7902  157.8865 C.ar    1  UNL1        0.1392
     31 C         140.4373  142.1865  158.7529 C.ar    1  UNL1        0.0367
     32 C         141.0536  143.5460  158.6053 C.ar    1  UNL1        0.0021
     33 C         140.5113  144.5094  157.5915 C.ar    1  UNL1        0.0177
     34 C         139.3526  144.1131  156.7252 C.ar    1  UNL1        0.0590
     35 CL        138.8103  145.0765  155.7113 Cl      1  UNL1       -0.0824
     36 C         138.7363  142.7536  156.8727 C.ar    1  UNL1        0.0480
     37 C         141.1277  145.8689  157.4439 C.3     1  UNL1        0.1644
     38 O         142.5723  146.0789  157.7887 O.3     1  UNL1       -0.3772
     39 H         142.7002  145.9452  158.7409 H       1  UNL1        0.2109
@<TRIPOS>UNITY_ATOM_ATTR
9 1
charge -1
@<TRIPOS>BOND
     1    18    19    1
     2    19    20    2
     3    19    21    2
     4    19    12    1
     5    12    13   ar
     6    13    14   ar
     7    14    15   ar
     8    15    11    1
     9    11     7    1
    10     7     8    1
    11     8     9   ar
    12     8    10   ar
    13     7     1    1
    14     1     2    1
    15     2     3    1
    16     3     4    1
    17     4    22    1
    18    22    23    1
    19    23    24    1
    20    24    25    1
    21    25    26    1
    22    26    29    1
    23    29    30    1
    24    30    31   ar
    25    31    32   ar
    26    32    33   ar
    27    33    37    1
    28    37    38    1
    29    33    34   ar
    30    34    35    1
    31    34    36   ar
    32    26    27    1
    33    27    28    1
    34     4     5    1
    35     5     6    1
    36    15    16   ar
    37    16    17   ar
    38    17    12   ar
    39     6     1    1
    40    28    23    1
    41    36    30   ar
    42    38    39    1
@<TRIPOS>MOLECULE
*****
 39 42 0 0 0
SMALL
GASTEIGER

@<TRIPOS>ATOM
      1 N         140.4183  140.6007  167.5709 N.3     1  UNL1       -0.2691
      2 C         140.3749  142.0702  167.2729 C.3     1  UNL1        0.0724
      3 C         141.5405  142.7341  166.6017 C.3     1  UNL1        0.0188
      4 C         142.7495  141.9285  166.2284 C.3     1  UNL1        0.0188
      5 C         142.7930  140.4590  166.5264 C.3     1  UNL1        0.0188
      6 C         141.6273  139.7951  167.1977 C.3     1  UNL1        0.0724
      7 C         139.2526  139.9368  168.2422 C.3     1  UNL1        0.0987
      8 C         139.0927  140.0282  169.7309 C.2     1  UNL1        0.0652
      9 O         140.2741  140.3615  170.5930 O.co2   1  UNL1       -0.5478
     10 O         137.7515  139.7861  170.3574 O.co2   1  UNL1       -0.5478
     11 C         138.2469  139.1816  167.4248 C.3     1  UNL1        0.0480
     12 C         138.8411  138.7236  162.9878 C.ar    1  UNL1        0.1057
     13 C         138.3726  140.0327  163.5506 C.ar    1  UNL1        0.0180
     14 C         138.1745  140.1853  165.0296 C.ar    1  UNL1       -0.0029
     15 C         138.4450  139.0289  165.9458 C.ar    1  UNL1       -0.0204
     16 C         138.9135  137.7199  165.3830 C.ar    1  UNL1       -0.0029
     17 C         139.1115  137.5672  163.9040 C.ar    1  UNL1        0.0180
     18 C         139.2372  138.4183  160.0298 C.3     1  UNL1        0.1816
     19 S         139.0392  138.5709  161.5088 S.O2    1  UNL1        0.0104
     20 O         137.8909  139.5031  161.2588 O.2     1  UNL1       -0.1686
     21 O         140.1874  137.6387  161.7588 O.2     1  UNL1       -0.1686
     22 C         143.9151  142.5924  165.5572 C.3     1  UNL1        0.0721
     23 N         143.9326  142.7480  164.0654 N.3     1  UNL1       -0.2724
     24 C         142.9832  143.6993  163.3994 C.3     1  UNL1        0.0758
     25 C         143.0006  143.8549  161.9076 C.3     1  UNL1        0.0609
     26 C         143.9675  143.0592  161.0818 C.3     1  UNL1        0.1687
     27 C         144.9169  142.1079  161.7478 C.3     1  UNL1        0.0609
     28 C         144.8994  141.9523  163.2396 C.3     1  UNL1        0.0758
     29 O         143.9849  143.2149  159.5900 O.3     1  UNL1       -0.4790
     30 C         143.7939  142.0163  158.7086 C.ar    1  UNL1        0.1392
     31 C         142.6095  141.1182  158.9102 C.ar    1  UNL1        0.0367
     32 C         142.4184  139.9196  158.0288 C.ar    1  UNL1        0.0021
     33 C         143.4118  139.6191  156.9458 C.ar    1  UNL1        0.0177
     34 C         144.5962  140.5171  156.7442 C.ar    1  UNL1        0.0590
     35 CL        145.5895  140.2166  155.6612 Cl      1  UNL1       -0.0824
     36 C         144.7873  141.7158  157.6256 C.ar    1  UNL1        0.0480
     37 C         143.2207  138.4204  156.0644 C.3     1  UNL1        0.1644
     38 O         143.8252  137.1026  156.4490 O.3     1  UNL1       -0.3772
     39 H         144.7925  137.1707  156.4229 H       1  UNL1        0.2109
@<TRIPOS>UNITY_ATOM_ATTR
9 1
charge -1
@<TRIPOS>BOND
     1    18    19    1
     2    19    20    2
     3    19    21    2
     4    19    12    1
     5    12    13   ar
     6    13    14   ar
     7    14    15   ar
     8    15    11    1
     9    11     7    1
    10     7     8    1
    11     8     9   ar
    12     8    10   ar
    13     7     1    1
    14     1     2    1
    15     2     3    1
    16     3     4    1
    17     4    22    1
    18    22    23    1
    19    23    24    1
    20    24    25    1
    21    25    26    1
    22    26    29    1
    23    29    30    1
    24    30    31   ar
    25    31    32   ar
    26    32    33   ar
    27    33    37    1
    28    37    38    1
    29    33    34   ar
    30    34    35    1
    31    34    36   ar
    32    26    27    1
    33    27    28    1
    34     4     5    1
    35     5     6    1
    36    15    16   ar
    37    16    17   ar
    38    17    12   ar
    39     6     1    1
    40    28    23    1
    41    36    30   ar
    42    38    39    1
@<TRIPOS>MOLECULE
*****
 39 42 0 0 0
SMALL
GASTEIGER

@<TRIPOS>ATOM
      1 N         142.1040  140.1280  166.9031 N.3     1  UNL1       -0.2691
      2 C         142.4807  141.5188  166.4863 C.3     1  UNL1        0.0724
      3 C         143.5080  141.7280  165.4136 C.3     1  UNL1        0.0188
      4 C         144.1587  140.5463  164.7575 C.3     1  UNL1        0.0188
      5 C         143.7819  139.1555  165.1743 C.3     1  UNL1        0.0188
      6 C         142.7546  138.9463  166.2472 C.3     1  UNL1        0.0724
      7 C         141.0766  139.9189  167.9760 C.3     1  UNL1        0.0987
      8 C         141.5089  139.6912  169.3942 C.2     1  UNL1        0.0652
      9 O         140.4819  139.4746  170.4657 O.co2   1  UNL1       -0.5478
     10 O         142.9683  139.6801  169.7408 O.co2   1  UNL1       -0.5478
     11 C         139.6171  139.9375  167.6306 C.3     1  UNL1        0.0480
     12 C         138.3224  139.8038  163.3229 C.ar    1  UNL1        0.1057
     13 C         138.6766  138.5345  164.0393 C.ar    1  UNL1        0.0180
     14 C         139.1081  138.5790  165.4752 C.ar    1  UNL1       -0.0029
     15 C         139.1855  139.8929  166.1947 C.ar    1  UNL1       -0.0204
     16 C         138.8314  141.1623  165.4782 C.ar    1  UNL1       -0.0029
     17 C         138.3999  141.1177  164.0423 C.ar    1  UNL1        0.0180
     18 C         137.4593  139.7147  160.4511 C.3     1  UNL1        0.1816
     19 S         137.8909  139.7593  161.8870 S.O2    1  UNL1        0.0104
     20 O         138.4887  138.3904  161.7498 O.2     1  UNL1       -0.1686
     21 O         137.2931  141.1282  162.0242 O.2     1  UNL1       -0.1686
     22 C         145.1860  140.7554  163.6848 C.3     1  UNL1        0.0721
     23 N         144.7575  140.9057  162.2551 N.3     1  UNL1       -0.2724
     24 C         144.1919  139.7306  161.5142 C.3     1  UNL1        0.0758
     25 C         143.7635  139.8809  160.0845 C.3     1  UNL1        0.0609
     26 C         143.9007  141.2064  159.3959 C.3     1  UNL1        0.1687
     27 C         144.4664  142.3815  160.1368 C.3     1  UNL1        0.0609
     28 C         144.8948  142.2312  161.5665 C.3     1  UNL1        0.0758
     29 O         143.4723  141.3567  157.9662 O.3     1  UNL1       -0.4790
     30 C         142.5183  142.4478  157.5799 C.ar    1  UNL1        0.1392
     31 C         141.2465  142.6400  158.3517 C.ar    1  UNL1        0.0367
     32 C         140.2924  143.7311  157.9654 C.ar    1  UNL1        0.0021
     33 C         140.6102  144.6300  156.8073 C.ar    1  UNL1        0.0177
     34 C         141.8819  144.4378  156.0356 C.ar    1  UNL1        0.0590
     35 CL        142.1996  145.3367  154.8775 Cl      1  UNL1       -0.0824
     36 C         142.8360  143.3467  156.4219 C.ar    1  UNL1        0.0480
     37 C         139.6560  145.7212  156.4210 C.3     1  UNL1        0.1644
     38 O         139.9124  147.1321  156.8608 O.3     1  UNL1       -0.3772
     39 H         139.8405  147.1879  157.8265 H       1  UNL1        0.2109
@<TRIPOS>UNITY_ATOM_ATTR
9 1
charge -1
@<TRIPOS>BOND
     1    18    19    1
     2    19    20    2
     3    19    21    2
     4    19    12    1
     5    12    13   ar
     6    13    14   ar
     7    14    15   ar
     8    15    11    1
     9    11     7    1
    10     7     8    1
    11     8     9   ar
    12     8    10   ar
    13     7     1    1
    14     1     2    1
    15     2     3    1
    16     3     4    1
    17     4    22    1
    18    22    23    1
    19    23    24    1
    20    24    25    1
    21    25    26    1
    22    26    29    1
    23    29    30    1
    24    30    31   ar
    25    31    32   ar
    26    32    33   ar
    27    33    37    1
    28    37    38    1
    29    33    34   ar
    30    34    35    1
    31    34    36   ar
    32    26    27    1
    33    27    28    1
    34     4     5    1
    35     5     6    1
    36    15    16   ar
    37    16    17   ar
    38    17    12   ar
    39     6     1    1
    40    28    23    1
    41    36    30   ar
    42    38    39    1
@<TRIPOS>MOLECULE
*****
 39 42 0 0 0
SMALL
GASTEIGER

@<TRIPOS>ATOM
      1 N         140.2935  140.6165  167.7432 N.3     1  UNL1       -0.2691
      2 C         140.2248  142.0282  167.2409 C.3     1  UNL1        0.0724
      3 C         141.4231  142.6512  166.5882 C.3     1  UNL1        0.0188
      4 C         142.6901  141.8624  166.4378 C.3     1  UNL1        0.0188
      5 C         142.7588  140.4506  166.9401 C.3     1  UNL1        0.0188
      6 C         141.5604  139.8277  167.5928 C.3     1  UNL1        0.0724
      7 C         139.0951  139.9936  168.3959 C.3     1  UNL1        0.0987
      8 C         138.8483  140.1978  169.8612 C.2     1  UNL1        0.0652
      9 O         139.8069  141.0139  170.6767 O.co2   1  UNL1       -0.5478
     10 O         137.6427  139.5860  170.5112 O.co2   1  UNL1       -0.5478
     11 C         138.1437  139.1664  167.5832 C.3     1  UNL1        0.0480
     12 C         138.7914  138.6913  163.1555 C.ar    1  UNL1        0.1057
     13 C         139.0780  137.5473  164.0824 C.ar    1  UNL1        0.0180
     14 C         138.8621  137.7057  165.5583 C.ar    1  UNL1       -0.0029
     15 C         138.3596  139.0080  166.1073 C.ar    1  UNL1       -0.0204
     16 C         138.0730  140.1519  165.1804 C.ar    1  UNL1       -0.0029
     17 C         138.2889  139.9936  163.7045 C.ar    1  UNL1        0.0180
     18 C         139.2232  138.3745  160.2037 C.3     1  UNL1        0.1816
     19 S         139.0073  138.5329  161.6796 S.O2    1  UNL1        0.0104
     20 O         140.1346  137.5801  161.9467 O.2     1  UNL1       -0.1686
     21 O         137.8800  139.4857  161.4124 O.2     1  UNL1       -0.1686
     22 C         143.8884  142.4853  165.7851 C.3     1  UNL1        0.0721
     23 N         143.9039  142.7073  164.3017 N.3     1  UNL1       -0.2724
     24 C         144.2758  141.5846  163.3792 C.3     1  UNL1        0.0758
     25 C         144.2913  141.8066  161.8958 C.3     1  UNL1        0.0609
     26 C         143.9348  143.1513  161.3349 C.3     1  UNL1        0.1687
     27 C         143.5628  144.2740  162.2574 C.3     1  UNL1        0.0609
     28 C         143.5473  144.0520  163.7408 C.3     1  UNL1        0.0758
     29 O         143.9503  143.3733  159.8515 O.3     1  UNL1       -0.4790
     30 C         142.6633  143.3832  159.0812 C.ar    1  UNL1        0.1392
     31 C         142.6271  143.9386  157.6882 C.ar    1  UNL1        0.0367
     32 C         141.3401  143.9484  156.9179 C.ar    1  UNL1        0.0021
     33 C         140.0892  143.4029  157.5404 C.ar    1  UNL1        0.0177
     34 C         140.1253  142.8475  158.9333 C.ar    1  UNL1        0.0590
     35 CL        138.8744  142.3019  159.5558 Cl      1  UNL1       -0.0824
     36 C         141.4123  142.8376  159.7037 C.ar    1  UNL1        0.0480
     37 C         138.8022  143.4127  156.7700 C.3     1  UNL1        0.1644
     38 O         138.2704  142.1395  156.1817 O.3     1  UNL1       -0.3772
     39 H         138.8725  141.8277  155.4880 H       1  UNL1        0.2109
@<TRIPOS>UNITY_ATOM_ATTR
9 1
charge -1
@<TRIPOS>BOND
     1    18    19    1
     2    19    20    2
     3    19    21    2
     4    19    12    1
     5    12    13   ar
     6    13    14   ar
     7    14    15   ar
     8    15    11    1
     9    11     7    1
    10     7     8    1
    11     8     9   ar
    12     8    10   ar
    13     7     1    1
    14     1     2    1
    15     2     3    1
    16     3     4    1
    17     4    22    1
    18    22    23    1
    19    23    24    1
    20    24    25    1
    21    25    26    1
    22    26    29    1
    23    29    30    1
    24    30    31   ar
    25    31    32   ar
    26    32    33   ar
    27    33    37    1
    28    37    38    1
    29    33    34   ar
    30    34    35    1
    31    34    36   ar
    32    26    27    1
    33    27    28    1
    34     4     5    1
    35     5     6    1
    36    15    16   ar
    37    16    17   ar
    38    17    12   ar
    39     6     1    1
    40    28    23    1
    41    36    30   ar
    42    38    39    1
@<TRIPOS>MOLECULE
*****
 39 42 0 0 0
SMALL
GASTEIGER

@<TRIPOS>ATOM
      1 N         143.2227  138.5732  157.7295 N.3     1  UNL1       -0.2691
      2 C         143.7064  139.9755  157.5069 C.3     1  UNL1        0.0724
      3 C         143.9465  140.8809  158.6784 C.3     1  UNL1        0.0188
      4 C         143.7028  140.3840  160.0727 C.3     1  UNL1        0.0188
      5 C         143.2191  138.9817  160.2953 C.3     1  UNL1        0.0188
      6 C         142.9790  138.0763  159.1236 C.3     1  UNL1        0.0724
      7 C         142.9826  137.6678  156.5578 C.3     1  UNL1        0.0987
      8 C         143.7263  137.8892  155.2741 C.2     1  UNL1        0.0652
      9 O         142.9737  138.0057  153.9819 O.co2   1  UNL1       -0.5478
     10 O         145.2227  137.9943  155.2828 O.co2   1  UNL1       -0.5478
     11 C         141.9989  136.5410  156.6700 C.3     1  UNL1        0.0480
     12 C         143.3839  132.2877  156.1781 C.ar    1  UNL1        0.1057
     13 C         143.9897  133.1556  157.2410 C.ar    1  UNL1        0.0180
     14 C         143.5280  134.5733  157.4050 C.ar    1  UNL1       -0.0029
     15 C         142.4606  135.1232  156.5060 C.ar    1  UNL1       -0.0204
     16 C         141.8548  134.2554  155.4431 C.ar    1  UNL1       -0.0029
     17 C         142.3165  132.8376  155.2791 C.ar    1  UNL1        0.0180
     18 C         144.3072  129.4523  155.8501 C.3     1  UNL1        0.1816
     19 S         143.8456  130.8700  156.0141 S.O2    1  UNL1        0.0104
     20 O         142.4222  130.4001  156.0694 O.2     1  UNL1       -0.1686
     21 O         145.2690  131.3399  155.9589 O.2     1  UNL1       -0.1686
     22 C         143.9429  141.2894  161.2442 C.3     1  UNL1        0.0721
     23 N         143.6252  140.8194  162.6328 N.3     1  UNL1       -0.2724
     24 C         144.6546  140.0689  163.4245 C.3     1  UNL1        0.0758
     25 C         144.3370  139.5989  164.8131 C.3     1  UNL1        0.0609
     26 C         142.9898  139.8795  165.4100 C.3     1  UNL1        0.1687
     27 C         141.9603  140.6300  164.6183 C.3     1  UNL1        0.0609
     28 C         142.2780  141.1000  163.2297 C.3     1  UNL1        0.0758
     29 O         142.6721  139.4095  166.7986 O.3     1  UNL1       -0.4790
     30 C         141.9796  140.3280  167.7612 C.ar    1  UNL1        0.1392
     31 C         142.5942  141.6513  168.1094 C.ar    1  UNL1        0.0367
     32 C         141.9017  142.5699  169.0720 C.ar    1  UNL1        0.0021
     33 C         140.5946  142.1652  169.6865 C.ar    1  UNL1        0.0177
     34 C         139.9800  140.8419  169.3384 C.ar    1  UNL1        0.0590
     35 CL        138.6728  140.4373  169.9529 Cl      1  UNL1       -0.0824
     36 C         140.6725  139.9233  168.3757 C.ar    1  UNL1        0.0480
     37 C         139.9021  143.0838  170.6492 C.3     1  UNL1        0.1644
     38 O         139.8768  144.5610  170.3900 O.3     1  UNL1       -0.3772
     39 H         140.7780  144.9149  170.4477 H       1  UNL1        0.2109
@<TRIPOS>UNITY_ATOM_ATTR
9 1
charge -1
@<TRIPOS>BOND
     1    18    19    1
     2    19    20    2
     3    19    21    2
     4    19    12    1
     5    12    13   ar
     6    13    14   ar
     7    14    15   ar
     8    15    11    1
     9    11     7    1
    10     7     8    1
    11     8     9   ar
    12     8    10   ar
    13     7     1    1
    14     1     2    1
    15     2     3    1
    16     3     4    1
    17     4    22    1
    18    22    23    1
    19    23    24    1
    20    24    25    1
    21    25    26    1
    22    26    29    1
    23    29    30    1
    24    30    31   ar
    25    31    32   ar
    26    32    33   ar
    27    33    37    1
    28    37    38    1
    29    33    34   ar
    30    34    35    1
    31    34    36   ar
    32    26    27    1
    33    27    28    1
    34     4     5    1
    35     5     6    1
    36    15    16   ar
    37    16    17   ar
    38    17    12   ar
    39     6     1    1
    40    28    23    1
    41    36    30   ar
    42    38    39    1
@<TRIPOS>MOLECULE
*****
 39 42 0 0 0
SMALL
GASTEIGER

@<TRIPOS>ATOM
      1 N         141.8627  137.8563  157.3385 N.3     1  UNL1       -0.2691
      2 C         140.3790  138.0753  157.3186 C.3     1  UNL1        0.0724
      3 C         139.6520  138.4022  158.5893 C.3     1  UNL1        0.0188
      4 C         140.4088  138.5100  159.8800 C.3     1  UNL1        0.0188
      5 C         141.8926  138.2909  159.8998 C.3     1  UNL1        0.0188
      6 C         142.6196  137.9640  158.6290 C.3     1  UNL1        0.0724
      7 C         142.5897  137.5294  156.0677 C.3     1  UNL1        0.0987
      8 C         143.6922  138.4236  155.5831 C.2     1  UNL1        0.0652
      9 O         143.3732  139.7954  155.0670 O.co2   1  UNL1       -0.5478
     10 O         145.1138  137.9460  155.6147 O.co2   1  UNL1       -0.5478
     11 C         142.2141  136.3084  155.2816 C.3     1  UNL1        0.0480
     12 C         143.3614  132.2245  156.7834 C.ar    1  UNL1        0.1057
     13 C         144.0670  133.4409  157.3050 C.ar    1  UNL1        0.0180
     14 C         143.6846  134.8023  156.8045 C.ar    1  UNL1       -0.0029
     15 C         142.5965  134.9471  155.7822 C.ar    1  UNL1       -0.0204
     16 C         141.8909  133.7306  155.2605 C.ar    1  UNL1       -0.0029
     17 C         142.2733  132.3693  155.7611 C.ar    1  UNL1        0.0180
     18 C         144.1262  129.5019  157.7845 C.3     1  UNL1        0.1816
     19 S         143.7438  130.8632  157.2839 S.O2    1  UNL1        0.0104
     20 O         144.8883  131.4644  158.0446 O.2     1  UNL1       -0.1686
     21 O         142.5993  130.2619  156.5233 O.2     1  UNL1       -0.1686
     22 C         139.6819  138.8368  161.1506 C.3     1  UNL1        0.0721
     23 N         140.4537  139.1041  162.4088 N.3     1  UNL1       -0.2724
     24 C         140.8067  137.9718  163.3270 C.3     1  UNL1        0.0758
     25 C         141.5785  138.2391  164.5851 C.3     1  UNL1        0.0609
     26 C         141.9973  139.6387  164.9250 C.3     1  UNL1        0.1687
     27 C         141.6443  140.7710  164.0068 C.3     1  UNL1        0.0609
     28 C         140.8725  140.5037  162.7487 C.3     1  UNL1        0.0758
     29 O         142.7691  139.9060  166.1832 O.3     1  UNL1       -0.4790
     30 C         142.1136  140.6205  167.3276 C.ar    1  UNL1        0.1392
     31 C         142.7193  141.8808  167.8708 C.ar    1  UNL1        0.0367
     32 C         142.0638  142.5952  169.0152 C.ar    1  UNL1        0.0021
     33 C         140.8027  142.0494  169.6167 C.ar    1  UNL1        0.0177
     34 C         140.1970  140.7892  169.0736 C.ar    1  UNL1        0.0590
     35 CL        138.9359  140.2434  169.6750 Cl      1  UNL1       -0.0824
     36 C         140.8525  140.0747  167.9291 C.ar    1  UNL1        0.0480
     37 C         140.1472  142.7640  170.7612 C.3     1  UNL1        0.1644
     38 O         140.3252  142.2579  172.1620 O.3     1  UNL1       -0.3772
     39 H         139.9012  141.3898  172.2485 H       1  UNL1        0.2109
@<TRIPOS>UNITY_ATOM_ATTR
9 1
charge -1
@<TRIPOS>BOND
     1    18    19    1
     2    19    20    2
     3    19    21    2
     4    19    12    1
     5    12    13   ar
     6    13    14   ar
     7    14    15   ar
     8    15    11    1
     9    11     7    1
    10     7     8    1
    11     8     9   ar
    12     8    10   ar
    13     7     1    1
    14     1     2    1
    15     2     3    1
    16     3     4    1
    17     4    22    1
    18    22    23    1
    19    23    24    1
    20    24    25    1
    21    25    26    1
    22    26    29    1
    23    29    30    1
    24    30    31   ar
    25    31    32   ar
    26    32    33   ar
    27    33    37    1
    28    37    38    1
    29    33    34   ar
    30    34    35    1
    31    34    36   ar
    32    26    27    1
    33    27    28    1
    34     4     5    1
    35     5     6    1
    36    15    16   ar
    37    16    17   ar
    38    17    12   ar
    39     6     1    1
    40    28    23    1
    41    36    30   ar
    42    38    39    1
@<TRIPOS>MOLECULE
*****
 39 42 0 0 0
SMALL
GASTEIGER

@<TRIPOS>ATOM
      1 N         140.5813  139.8345  166.8404 N.3     1  UNL1       -0.2691
      2 C         139.3422  139.4946  166.0663 C.3     1  UNL1        0.0724
      3 C         139.4286  138.5932  164.8705 C.3     1  UNL1        0.0188
      4 C         140.7540  138.0316  164.4487 C.3     1  UNL1        0.0188
      5 C         141.9931  138.3714  165.2228 C.3     1  UNL1        0.0188
      6 C         141.9067  139.2729  166.4187 C.3     1  UNL1        0.0724
      7 C         140.4949  140.7360  168.0362 C.3     1  UNL1        0.0987
      8 C         140.0773  140.1805  169.3655 C.2     1  UNL1        0.0652
      9 O         141.0547  139.3987  170.1922 O.co2   1  UNL1       -0.5478
     10 O         138.6822  140.4069  169.8682 O.co2   1  UNL1       -0.5478
     11 C         140.8260  142.1928  167.9027 C.3     1  UNL1        0.0480
     12 C         140.5526  144.2035  163.8862 C.ar    1  UNL1        0.1057
     13 C         141.7905  143.4446  164.2622 C.ar    1  UNL1        0.0180
     14 C         141.8817  142.7744  165.6011 C.ar    1  UNL1       -0.0029
     15 C         140.7349  142.8630  166.5638 C.ar    1  UNL1       -0.0204
     16 C         139.4969  143.6219  166.1877 C.ar    1  UNL1       -0.0029
     17 C         139.4058  144.2922  164.8489 C.ar    1  UNL1        0.0180
     18 C         140.3703  145.5440  161.2085 C.3     1  UNL1        0.1816
     19 S         140.4614  144.8737  162.5473 S.O2    1  UNL1        0.0104
     20 O         138.9999  145.1251  162.7727 O.2     1  UNL1       -0.1686
     21 O         141.9229  144.6223  162.3220 O.2     1  UNL1       -0.1686
     22 C         140.8404  137.1302  163.2530 C.3     1  UNL1        0.0721
     23 N         141.0903  137.7106  161.8926 N.3     1  UNL1       -0.2724
     24 C         139.9658  138.3467  161.1305 C.3     1  UNL1        0.0758
     25 C         140.2157  138.9272  159.7701 C.3     1  UNL1        0.0609
     26 C         141.5901  138.8716  159.1719 C.3     1  UNL1        0.1687
     27 C         142.7146  138.2355  159.9340 C.3     1  UNL1        0.0609
     28 C         142.4647  137.6551  161.2944 C.3     1  UNL1        0.0758
     29 O         141.8400  139.4521  157.8115 O.3     1  UNL1       -0.4790
     30 C         143.0997  140.2212  157.5441 C.ar    1  UNL1        0.1392
     31 C         143.4725  141.3787  158.4224 C.ar    1  UNL1        0.0367
     32 C         144.7322  142.1478  158.1550 C.ar    1  UNL1        0.0021
     33 C         145.6192  141.7595  157.0094 C.ar    1  UNL1        0.0177
     34 C         145.2465  140.6020  156.1312 C.ar    1  UNL1        0.0590
     35 CL        146.1335  140.2137  154.9855 Cl      1  UNL1       -0.0824
     36 C         143.9867  139.8329  156.3985 C.ar    1  UNL1        0.0480
     37 C         146.8790  142.5287  156.7421 C.3     1  UNL1        0.1644
     38 O         146.8730  143.6580  155.7549 O.3     1  UNL1       -0.3772
     39 H         146.7040  143.3092  154.8656 H       1  UNL1        0.2109
@<TRIPOS>UNITY_ATOM_ATTR
9 1
charge -1
@<TRIPOS>BOND
     1    18    19    1
     2    19    20    2
     3    19    21    2
     4    19    12    1
     5    12    13   ar
     6    13    14   ar
     7    14    15   ar
     8    15    11    1
     9    11     7    1
    10     7     8    1
    11     8     9   ar
    12     8    10   ar
    13     7     1    1
    14     1     2    1
    15     2     3    1
    16     3     4    1
    17     4    22    1
    18    22    23    1
    19    23    24    1
    20    24    25    1
    21    25    26    1
    22    26    29    1
    23    29    30    1
    24    30    31   ar
    25    31    32   ar
    26    32    33   ar
    27    33    37    1
    28    37    38    1
    29    33    34   ar
    30    34    35    1
    31    34    36   ar
    32    26    27    1
    33    27    28    1
    34     4     5    1
    35     5     6    1
    36    15    16   ar
    37    16    17   ar
    38    17    12   ar
    39     6     1    1
    40    28    23    1
    41    36    30   ar
    42    38    39    1
@<TRIPOS>MOLECULE
*****
 39 42 0 0 0
SMALL
GASTEIGER

@<TRIPOS>ATOM
      1 N         139.0367  140.4493  159.4852 N.3     1  UNL1       -0.2691
      2 C         137.8197  140.2112  160.3291 C.3     1  UNL1        0.0724
      3 C         137.8842  139.2593  161.4865 C.3     1  UNL1        0.0188
      4 C         139.1656  138.5454  161.8000 C.3     1  UNL1        0.0188
      5 C         140.3826  138.7834  160.9560 C.3     1  UNL1        0.0188
      6 C         140.3181  139.7354  159.7986 C.3     1  UNL1        0.0724
      7 C         138.9722  141.4013  158.3277 C.3     1  UNL1        0.0987
      8 C         138.6599  140.8899  156.9526 C.2     1  UNL1        0.0652
      9 O         138.7363  141.8140  155.7735 O.co2   1  UNL1       -0.5478
     10 O         138.2712  139.4544  156.7565 O.co2   1  UNL1       -0.5478
     11 C         139.2200  142.8645  158.5454 C.3     1  UNL1        0.0480
     12 C         141.9123  144.2178  161.8876 C.ar    1  UNL1        0.1057
     13 C         142.5039  143.7399  160.5948 C.ar    1  UNL1        0.0180
     14 C         141.6065  143.2888  159.4807 C.ar    1  UNL1       -0.0029
     15 C         140.1174  143.3156  159.6595 C.ar    1  UNL1       -0.0204
     16 C         139.5258  143.7935  160.9524 C.ar    1  UNL1       -0.0029
     17 C         140.4232  144.2446  162.0664 C.ar    1  UNL1        0.0180
     18 C         143.7071  145.1200  164.1158 C.3     1  UNL1        0.1816
     19 S         142.8097  144.6689  163.0017 S.O2    1  UNL1        0.0104
     20 O         144.0084  144.4350  162.1309 O.2     1  UNL1       -0.1686
     21 O         141.6110  144.9028  163.8726 O.2     1  UNL1       -0.1686
     22 C         139.2301  137.5934  162.9574 C.3     1  UNL1        0.0721
     23 N         139.1549  138.1143  164.3620 N.3     1  UNL1       -0.2724
     24 C         138.2271  137.4733  165.3511 C.3     1  UNL1        0.0758
     25 C         138.1520  137.9942  166.7557 C.3     1  UNL1        0.0609
     26 C         139.0046  139.1562  167.1713 C.3     1  UNL1        0.1687
     27 C         139.9324  139.7972  166.1823 C.3     1  UNL1        0.0609
     28 C         140.0075  139.2763  164.7777 C.3     1  UNL1        0.0758
     29 O         138.9294  139.6771  168.5759 O.3     1  UNL1       -0.4790
     30 C         140.0184  140.5612  169.1073 C.ar    1  UNL1        0.1392
     31 C         141.3705  139.9864  169.4099 C.ar    1  UNL1        0.0367
     32 C         142.4595  140.8705  169.9412 C.ar    1  UNL1        0.0021
     33 C         142.1966  142.3294  170.1699 C.ar    1  UNL1        0.0177
     34 C         140.8446  142.9043  169.8673 C.ar    1  UNL1        0.0590
     35 CL        140.5816  144.3632  170.0960 Cl      1  UNL1       -0.0824
     36 C         139.7555  142.0201  169.3360 C.ar    1  UNL1        0.0480
     37 C         143.2857  143.2135  170.7013 C.3     1  UNL1        0.1644
     38 O         144.7111  142.9693  170.3033 O.3     1  UNL1       -0.3772
     39 H         145.0051  142.1169  170.6608 H       1  UNL1        0.2109
@<TRIPOS>UNITY_ATOM_ATTR
9 1
charge -1
@<TRIPOS>BOND
     1    18    19    1
     2    19    20    2
     3    19    21    2
     4    19    12    1
     5    12    13   ar
     6    13    14   ar
     7    14    15   ar
     8    15    11    1
     9    11     7    1
    10     7     8    1
    11     8     9   ar
    12     8    10   ar
    13     7     1    1
    14     1     2    1
    15     2     3    1
    16     3     4    1
    17     4    22    1
    18    22    23    1
    19    23    24    1
    20    24    25    1
    21    25    26    1
    22    26    29    1
    23    29    30    1
    24    30    31   ar
    25    31    32   ar
    26    32    33   ar
    27    33    37    1
    28    37    38    1
    29    33    34   ar
    30    34    35    1
    31    34    36   ar
    32    26    27    1
    33    27    28    1
    34     4     5    1
    35     5     6    1
    36    15    16   ar
    37    16    17   ar
    38    17    12   ar
    39     6     1    1
    40    28    23    1
    41    36    30   ar
    42    38    39    1
