@<TRIPOS>MOLECULE
*****
 35 38 0 0 0
SMALL
GASTEIGER

@<TRIPOS>ATOM
      1 C         141.8627  140.7279  166.6765 C.ar    1  UNL1        0.0528
      2 C         141.3801  141.4977  165.4829 C.ar    1  UNL1        0.0167
      3 C         141.8963  141.1619  164.1151 C.ar    1  UNL1        0.0505
      4 C         142.8950  140.0564  163.9410 C.ar    1  UNL1        0.0170
      5 C         143.3776  139.2866  165.1345 C.ar    1  UNL1        0.0307
      6 C         142.8614  139.6224  166.5023 C.ar    1  UNL1        0.1402
      7 F         143.3439  138.8526  167.6958 F       1  UNL1       -0.2044
      8 N         138.4224  138.7491  166.6864 N.pl3   1  UNL1       -0.2456
      9 C         139.2251  139.6326  167.5950 C.2     1  UNL1        0.3505
     10 N         140.5438  140.1802  167.1357 N.2     1  UNL1       -0.0666
     11 C         141.3465  141.0636  168.0443 C.3     1  UNL1        0.2224
     12 C         142.6652  141.6113  167.5850 C.3     1  UNL1        0.1951
     13 O         143.4678  142.4946  168.4936 O.3     1  UNL1       -0.3490
     14 C         142.9516  142.8304  169.8613 C.3     1  UNL1        0.1425
     15 C         141.6328  142.2828  170.3206 C.3     1  UNL1        0.0369
     16 C         140.8303  141.3994  169.4121 C.3     1  UNL1        0.0601
     17 C         139.5114  140.8517  169.8713 C.3     1  UNL1        0.0837
     18 C         138.7089  139.9683  168.9628 C.3     1  UNL1        0.3553
     19 F         137.8050  140.0013  170.1593 F       1  UNL1       -0.1914
     20 F         137.5924  139.0964  168.4698 F       1  UNL1       -0.1914
     21 H         138.7612  138.5288  165.7887 H       1  UNL1        0.2883
     22 H         137.5569  138.3897  166.9879 H       1  UNL1        0.2883
     23 N         141.4137  141.9317  162.9216 N.am    1  UNL1       -0.2791
     24 C         142.0227  143.2620  162.5907 C.2     1  UNL1        0.2688
     25 O         143.1143  143.8225  163.4535 O.2     1  UNL1       -0.2681
     26 H         140.6974  141.5638  162.3553 H       1  UNL1        0.1552
     27 C         141.5402  144.0318  161.3972 C.ar    1  UNL1        0.1541
     28 C         140.3030  144.8738  161.4979 C.ar    1  UNL1        0.1258
     29 N         139.8204  145.6436  160.3043 N.ar    1  UNL1       -0.2070
     30 C         140.5751  145.5713  159.0100 C.ar    1  UNL1        0.2469
     31 C         141.8124  144.7292  158.9093 C.ar    1  UNL1        0.1566
     32 N         142.2949  143.9595  160.1029 N.ar    1  UNL1       -0.2328
     33 O         140.0926  146.3410  157.8165 O.3     1  UNL1       -0.4265
     34 C         140.6398  146.0332  156.4542 C.3     1  UNL1        0.4044
     35 F         140.6687  147.0991  155.3991 F       1  UNL1       -0.1809
@<TRIPOS>BOND
     1     8     9    1
     2     9    10    2
     3    10    11    1
     4    11     1    1
     5     1     2   ar
     6     2     3   ar
     7     3    23    1
     8    23    24   am
     9    24    25    2
    10    24    27    1
    11    27    28   ar
    12    28    29   ar
    13    29    30   ar
    14    30    33    1
    15    33    34    1
    16    34    35    1
    17    30    31   ar
    18    31    32   ar
    19     3     4   ar
    20     4     5   ar
    21     5     6   ar
    22     6     7    1
    23    11    12    1
    24    12    13    1
    25    13    14    1
    26    14    15    1
    27    16    15    1
    28    16    17    1
    29    17    18    1
    30    18    19    1
    31    18    20    1
    32    18     9    1
    33    16    11    1
    34     6     1   ar
    35    32    27   ar
    36     8    21    1
    37     8    22    1
    38    23    26    1
@<TRIPOS>MOLECULE
*****
 35 38 0 0 0
SMALL
GASTEIGER

@<TRIPOS>ATOM
      1 C         141.5494  141.9916  166.2542 C.ar    1  UNL1        0.0528
      2 C         141.1603  142.6942  164.9872 C.ar    1  UNL1        0.0167
      3 C         142.1674  143.5282  164.2524 C.ar    1  UNL1        0.0505
      4 C         143.5637  143.6597  164.7845 C.ar    1  UNL1        0.0170
      5 C         143.9528  142.9572  166.0514 C.ar    1  UNL1        0.0307
      6 C         142.9457  142.1232  166.7862 C.ar    1  UNL1        0.1402
      7 F         143.3348  141.4207  168.0531 F       1  UNL1       -0.2044
      8 N         140.4245  139.4809  163.3939 N.pl3   1  UNL1       -0.2456
      9 C         140.1280  139.7618  164.8372 C.2     1  UNL1        0.3505
     10 N         140.8387  140.8767  165.5457 N.2     1  UNL1       -0.0666
     11 C         140.5422  141.1576  166.9890 C.3     1  UNL1        0.2224
     12 C         141.2529  142.2725  167.6975 C.3     1  UNL1        0.1951
     13 O         140.9564  142.5534  169.1408 O.3     1  UNL1       -0.3490
     14 C         139.9493  141.7194  169.8756 C.3     1  UNL1        0.1425
     15 C         139.2386  140.6045  169.1672 C.3     1  UNL1        0.0369
     16 C         139.5351  140.3236  167.7239 C.3     1  UNL1        0.0601
     17 C         138.8244  139.2087  167.0154 C.3     1  UNL1        0.0837
     18 C         139.1209  138.9278  165.5721 C.3     1  UNL1        0.3553
     19 F         138.0927  137.8685  165.8377 F       1  UNL1       -0.1914
     20 F         139.0603  138.2791  164.2210 F       1  UNL1       -0.1914
     21 H         141.0856  140.0283  162.9115 H       1  UNL1        0.2883
     22 H         139.9581  138.7492  162.9289 H       1  UNL1        0.2883
     23 N         141.7783  144.2307  162.9855 N.am    1  UNL1       -0.2791
     24 C         142.0365  143.5813  161.6581 C.2     1  UNL1        0.2688
     25 O         142.6838  142.2295  161.5977 O.2     1  UNL1       -0.2681
     26 H         141.3535  145.1179  163.0251 H       1  UNL1        0.1552
     27 C         141.6475  144.2838  160.3912 C.ar    1  UNL1        0.1541
     28 C         140.3403  145.0150  160.3102 C.ar    1  UNL1        0.1258
     29 N         139.9511  145.7175  159.0432 N.ar    1  UNL1       -0.2070
     30 C         140.8692  145.6888  157.8573 C.ar    1  UNL1        0.2469
     31 C         142.1765  144.9576  157.9384 C.ar    1  UNL1        0.1566
     32 N         142.5655  144.2551  159.2053 N.ar    1  UNL1       -0.2328
     33 O         140.4801  146.3913  156.5905 O.3     1  UNL1       -0.4265
     34 C         139.1582  147.0942  156.4982 C.3     1  UNL1        0.4044
     35 F         138.1907  146.7324  155.4105 F       1  UNL1       -0.1809
@<TRIPOS>BOND
     1     8     9    1
     2     9    10    2
     3    10    11    1
     4    11     1    1
     5     1     2   ar
     6     2     3   ar
     7     3    23    1
     8    23    24   am
     9    24    25    2
    10    24    27    1
    11    27    28   ar
    12    28    29   ar
    13    29    30   ar
    14    30    33    1
    15    33    34    1
    16    34    35    1
    17    30    31   ar
    18    31    32   ar
    19     3     4   ar
    20     4     5   ar
    21     5     6   ar
    22     6     7    1
    23    11    12    1
    24    12    13    1
    25    13    14    1
    26    14    15    1
    27    16    15    1
    28    16    17    1
    29    17    18    1
    30    18    19    1
    31    18    20    1
    32    18     9    1
    33    16    11    1
    34     6     1   ar
    35    32    27   ar
    36     8    21    1
    37     8    22    1
    38    23    26    1
@<TRIPOS>MOLECULE
*****
 35 38 0 0 0
SMALL
GASTEIGER

@<TRIPOS>ATOM
      1 C         142.1342  140.4447  165.1836 C.ar    1  UNL1        0.0528
      2 C         141.7126  141.2055  163.9614 C.ar    1  UNL1        0.0167
      3 C         142.5029  141.0833  162.6923 C.ar    1  UNL1        0.0505
      4 C         143.7146  140.2004  162.6454 C.ar    1  UNL1        0.0170
      5 C         144.1361  139.4397  163.8675 C.ar    1  UNL1        0.0307
      6 C         143.3459  139.5619  165.1366 C.ar    1  UNL1        0.1402
      7 F         143.7674  138.8012  166.3588 F       1  UNL1       -0.2044
      8 N         139.0410  138.0951  164.3702 N.pl3   1  UNL1       -0.2456
      9 C         139.5452  138.9597  165.4874 C.2     1  UNL1        0.3505
     10 N         140.8397  139.7022  165.3355 N.2     1  UNL1       -0.0666
     11 C         141.3440  140.5669  166.4527 C.3     1  UNL1        0.2224
     12 C         142.6384  141.3093  166.3008 C.3     1  UNL1        0.1951
     13 O         143.1426  142.1739  167.4180 O.3     1  UNL1       -0.3490
     14 C         142.3524  142.2961  168.6871 C.3     1  UNL1        0.1425
     15 C         141.0579  141.5536  168.8390 C.3     1  UNL1        0.0369
     16 C         140.5537  140.6890  167.7218 C.3     1  UNL1        0.0601
     17 C         139.2592  139.9465  167.8737 C.3     1  UNL1        0.0837
     18 C         138.7550  139.0819  166.7565 C.3     1  UNL1        0.3553
     19 F         137.6573  138.8793  167.7584 F       1  UNL1       -0.1914
     20 F         137.8695  138.1469  165.9872 F       1  UNL1       -0.1914
     21 H         139.5596  138.0149  163.5372 H       1  UNL1        0.2883
     22 H         138.1913  137.6078  164.4699 H       1  UNL1        0.2883
     23 N         142.0814  141.8440  161.4702 N.am    1  UNL1       -0.2791
     24 C         142.3440  143.3179  161.3765 C.2     1  UNL1        0.2688
     25 O         143.0281  144.0310  162.5049 O.2     1  UNL1       -0.2681
     26 H         141.6324  141.3759  160.7296 H       1  UNL1        0.1552
     27 C         141.9225  144.0786  160.1544 C.ar    1  UNL1        0.1541
     28 C         140.6549  144.8805  160.1702 C.ar    1  UNL1        0.1258
     29 N         140.2334  145.6412  158.9480 N.ar    1  UNL1       -0.2070
     30 C         141.0794  145.6000  157.7101 C.ar    1  UNL1        0.2469
     31 C         142.3470  144.7981  157.6943 C.ar    1  UNL1        0.1566
     32 N         142.7685  144.0374  158.9164 N.ar    1  UNL1       -0.2328
     33 O         140.6579  146.3607  156.4879 O.3     1  UNL1       -0.4265
     34 C         139.2799  146.9478  156.4082 C.3     1  UNL1        0.4044
     35 F         138.8797  148.0516  157.3418 F       1  UNL1       -0.1809
@<TRIPOS>BOND
     1     8     9    1
     2     9    10    2
     3    10    11    1
     4    11     1    1
     5     1     2   ar
     6     2     3   ar
     7     3    23    1
     8    23    24   am
     9    24    25    2
    10    24    27    1
    11    27    28   ar
    12    28    29   ar
    13    29    30   ar
    14    30    33    1
    15    33    34    1
    16    34    35    1
    17    30    31   ar
    18    31    32   ar
    19     3     4   ar
    20     4     5   ar
    21     5     6   ar
    22     6     7    1
    23    11    12    1
    24    12    13    1
    25    13    14    1
    26    14    15    1
    27    16    15    1
    28    16    17    1
    29    17    18    1
    30    18    19    1
    31    18    20    1
    32    18     9    1
    33    16    11    1
    34     6     1   ar
    35    32    27   ar
    36     8    21    1
    37     8    22    1
    38    23    26    1
@<TRIPOS>MOLECULE
*****
 35 38 0 0 0
SMALL
GASTEIGER

@<TRIPOS>ATOM
      1 C         140.1022  142.3238  164.0111 C.ar    1  UNL1        0.0528
      2 C         140.1004  142.7559  162.5747 C.ar    1  UNL1        0.0167
      3 C         139.7500  144.1699  162.2173 C.ar    1  UNL1        0.0505
      4 C         139.4015  145.1518  163.2964 C.ar    1  UNL1        0.0170
      5 C         139.4033  144.7197  164.7328 C.ar    1  UNL1        0.0307
      6 C         139.7537  143.3057  165.0901 C.ar    1  UNL1        0.1402
      7 F         139.7555  142.8736  166.5265 F       1  UNL1       -0.2044
      8 N         137.3117  140.3316  162.0123 N.pl3   1  UNL1       -0.2456
      9 C         138.4755  140.0530  162.9168 C.2     1  UNL1        0.3505
     10 N         139.2888  141.1883  163.4640 N.2     1  UNL1       -0.0666
     11 C         140.4526  140.9097  164.3685 C.3     1  UNL1        0.2224
     12 C         141.2659  142.0451  164.9156 C.3     1  UNL1        0.1951
     13 O         142.4296  141.7664  165.8201 O.3     1  UNL1       -0.3490
     14 C         142.7799  140.3524  166.1775 C.3     1  UNL1        0.1425
     15 C         141.9666  139.2170  165.6304 C.3     1  UNL1        0.0369
     16 C         140.8029  139.4957  164.7259 C.3     1  UNL1        0.0601
     17 C         139.9895  138.3602  164.1787 C.3     1  UNL1        0.0837
     18 C         138.8259  138.6389  163.2742 C.3     1  UNL1        0.3553
     19 F         138.7647  137.1410  163.3234 F       1  UNL1       -0.1914
     20 F         137.6409  138.3974  162.3868 F       1  UNL1       -0.1914
     21 H         137.0818  141.2597  161.7777 H       1  UNL1        0.2883
     22 H         136.7779  139.5864  161.6532 H       1  UNL1        0.2883
     23 N         139.7482  144.6020  160.7809 N.am    1  UNL1       -0.2791
     24 C         141.0455  144.8653  160.0752 C.2     1  UNL1        0.2688
     25 O         142.3445  144.6964  160.8060 O.2     1  UNL1       -0.2681
     26 H         138.8956  144.7129  160.3013 H       1  UNL1        0.1552
     27 C         141.0436  145.2974  158.6389 C.ar    1  UNL1        0.1541
     28 C         142.2163  144.9805  157.7589 C.ar    1  UNL1        0.1258
     29 N         142.2145  145.4126  156.3224 N.ar    1  UNL1       -0.2070
     30 C         141.0400  146.1616  155.7660 C.ar    1  UNL1        0.2469
     31 C         139.8673  146.4785  156.6461 C.ar    1  UNL1        0.1566
     32 N         139.8692  146.0464  158.0825 N.ar    1  UNL1       -0.2328
     33 O         141.0382  146.5938  154.3296 O.3     1  UNL1       -0.4265
     34 C         140.2144  147.7720  153.9020 C.3     1  UNL1        0.4044
     35 F         140.5118  149.1350  154.4534 F       1  UNL1       -0.1809
@<TRIPOS>BOND
     1     8     9    1
     2     9    10    2
     3    10    11    1
     4    11     1    1
     5     1     2   ar
     6     2     3   ar
     7     3    23    1
     8    23    24   am
     9    24    25    2
    10    24    27    1
    11    27    28   ar
    12    28    29   ar
    13    29    30   ar
    14    30    33    1
    15    33    34    1
    16    34    35    1
    17    30    31   ar
    18    31    32   ar
    19     3     4   ar
    20     4     5   ar
    21     5     6   ar
    22     6     7    1
    23    11    12    1
    24    12    13    1
    25    13    14    1
    26    14    15    1
    27    16    15    1
    28    16    17    1
    29    17    18    1
    30    18    19    1
    31    18    20    1
    32    18     9    1
    33    16    11    1
    34     6     1   ar
    35    32    27   ar
    36     8    21    1
    37     8    22    1
    38    23    26    1
@<TRIPOS>MOLECULE
*****
 35 38 0 0 0
SMALL
GASTEIGER

@<TRIPOS>ATOM
      1 C         140.0618  142.4689  164.3087 C.ar    1  UNL1        0.0528
      2 C         139.7314  141.8664  162.9753 C.ar    1  UNL1        0.0167
      3 C         138.4928  142.2942  162.2452 C.ar    1  UNL1        0.0505
      4 C         137.5848  143.3246  162.8485 C.ar    1  UNL1        0.0170
      5 C         137.9152  143.9270  164.1818 C.ar    1  UNL1        0.0307
      6 C         139.1538  143.4992  164.9119 C.ar    1  UNL1        0.1402
      7 F         139.4842  144.1017  166.2452 F       1  UNL1       -0.2044
      8 N         142.5211  145.4569  163.4285 N.pl3   1  UNL1       -0.2456
      9 C         142.5270  144.1757  164.2086 C.2     1  UNL1        0.3505
     10 N         141.2944  143.3223  164.2586 N.2     1  UNL1       -0.0666
     11 C         141.3003  142.0411  165.0388 C.3     1  UNL1        0.2224
     12 C         140.0678  141.1878  165.0888 C.3     1  UNL1        0.1951
     13 O         140.0737  139.9067  165.8689 O.3     1  UNL1       -0.3490
     14 C         141.3122  139.4789  166.5990 C.3     1  UNL1        0.1425
     15 C         142.5448  140.3322  166.5490 C.3     1  UNL1        0.0369
     16 C         142.5389  141.6133  165.7689 C.3     1  UNL1        0.0601
     17 C         143.7715  142.4667  165.7188 C.3     1  UNL1        0.0837
     18 C         143.7655  143.7478  164.9387 C.3     1  UNL1        0.3553
     19 F         145.1716  143.7673  165.4608 F       1  UNL1       -0.1914
     20 F         144.2479  145.0358  164.3399 F       1  UNL1       -0.1914
     21 H         141.7082  145.7377  162.9493 H       1  UNL1        0.2883
     22 H         143.3301  146.0169  163.3956 H       1  UNL1        0.2883
     23 N         138.1624  141.6918  160.9119 N.am    1  UNL1       -0.2791
     24 C         138.5012  142.4298  159.6507 C.2     1  UNL1        0.2688
     25 O         139.1704  143.7703  159.7229 O.2     1  UNL1       -0.2681
     26 H         137.7231  140.8120  160.8645 H       1  UNL1        0.1552
     27 C         138.1707  141.8274  158.3173 C.ar    1  UNL1        0.1541
     28 C         138.4886  140.3868  158.0458 C.ar    1  UNL1        0.1258
     29 N         138.1581  139.7843  156.7124 N.ar    1  UNL1       -0.2070
     30 C         137.5098  140.6224  155.6506 C.ar    1  UNL1        0.2469
     31 C         137.1919  142.0630  155.9223 C.ar    1  UNL1        0.1566
     32 N         137.5224  142.6654  157.2556 N.ar    1  UNL1       -0.2328
     33 O         137.1793  140.0199  154.3173 O.3     1  UNL1       -0.4265
     34 C         136.2100  138.8786  154.2296 C.3     1  UNL1        0.4044
     35 F         136.6655  137.4825  154.5355 F       1  UNL1       -0.1809
@<TRIPOS>BOND
     1     8     9    1
     2     9    10    2
     3    10    11    1
     4    11     1    1
     5     1     2   ar
     6     2     3   ar
     7     3    23    1
     8    23    24   am
     9    24    25    2
    10    24    27    1
    11    27    28   ar
    12    28    29   ar
    13    29    30   ar
    14    30    33    1
    15    33    34    1
    16    34    35    1
    17    30    31   ar
    18    31    32   ar
    19     3     4   ar
    20     4     5   ar
    21     5     6   ar
    22     6     7    1
    23    11    12    1
    24    12    13    1
    25    13    14    1
    26    14    15    1
    27    16    15    1
    28    16    17    1
    29    17    18    1
    30    18    19    1
    31    18    20    1
    32    18     9    1
    33    16    11    1
    34     6     1   ar
    35    32    27   ar
    36     8    21    1
    37     8    22    1
    38    23    26    1
@<TRIPOS>MOLECULE
*****
 35 38 0 0 0
SMALL
GASTEIGER

@<TRIPOS>ATOM
      1 C         139.5740  139.9724  165.3966 C.ar    1  UNL1        0.0528
      2 C         140.2076  139.6391  164.0785 C.ar    1  UNL1        0.0167
      3 C         139.9799  138.2936  163.4557 C.ar    1  UNL1        0.0505
      4 C         139.1185  137.2814  164.1511 C.ar    1  UNL1        0.0170
      5 C         138.4849  137.6147  165.4692 C.ar    1  UNL1        0.0307
      6 C         138.7126  138.9602  166.0920 C.ar    1  UNL1        0.1402
      7 F         138.0790  139.2935  167.4100 F       1  UNL1       -0.2044
      8 N         137.9447  142.3479  162.6666 N.pl3   1  UNL1       -0.2456
      9 C         138.6396  142.4530  163.9918 C.2     1  UNL1        0.3505
     10 N         139.1068  141.2127  164.6942 N.2     1  UNL1       -0.0666
     11 C         139.8017  141.3179  166.0194 C.3     1  UNL1        0.2224
     12 C         140.2688  140.0776  166.7218 C.3     1  UNL1        0.1951
     13 O         140.9637  140.1828  168.0469 O.3     1  UNL1       -0.3490
     14 C         141.1914  141.5283  168.6697 C.3     1  UNL1        0.1425
     15 C         140.7242  142.7686  167.9673 C.3     1  UNL1        0.0369
     16 C         140.0294  142.6634  166.6421 C.3     1  UNL1        0.0601
     17 C         139.5622  143.9037  165.9397 C.3     1  UNL1        0.0837
     18 C         138.8673  143.7985  164.6145 C.3     1  UNL1        0.3553
     19 F         138.8518  145.2869  164.7994 F       1  UNL1       -0.1914
     20 F         138.1670  144.2102  163.3535 F       1  UNL1       -0.1914
     21 H         137.7952  141.4648  162.2578 H       1  UNL1        0.2883
     22 H         137.6381  143.1619  162.2055 H       1  UNL1        0.2883
     23 N         140.6136  137.9603  162.1376 N.am    1  UNL1       -0.2791
     24 C         140.2183  138.7154  160.9032 C.2     1  UNL1        0.2688
     25 O         139.1894  139.8036  160.9869 O.2     1  UNL1       -0.2681
     26 H         141.2889  137.2461  162.0827 H       1  UNL1        0.1552
     27 C         140.8520  138.3821  159.5851 C.ar    1  UNL1        0.1541
     28 C         142.3418  138.2409  159.4836 C.ar    1  UNL1        0.1258
     29 N         142.9755  137.9076  158.1654 N.ar    1  UNL1       -0.2070
     30 C         142.1193  137.7154  156.9489 C.ar    1  UNL1        0.2469
     31 C         140.6294  137.8566  157.0505 C.ar    1  UNL1        0.1566
     32 N         139.9957  138.1899  158.3686 N.ar    1  UNL1       -0.2328
     33 O         142.7529  137.3822  155.6308 O.3     1  UNL1       -0.4265
     34 C         144.0063  136.5593  155.5880 C.3     1  UNL1        0.4044
     35 F         144.0996  135.2926  156.3860 F       1  UNL1       -0.1809
@<TRIPOS>BOND
     1     8     9    1
     2     9    10    2
     3    10    11    1
     4    11     1    1
     5     1     2   ar
     6     2     3   ar
     7     3    23    1
     8    23    24   am
     9    24    25    2
    10    24    27    1
    11    27    28   ar
    12    28    29   ar
    13    29    30   ar
    14    30    33    1
    15    33    34    1
    16    34    35    1
    17    30    31   ar
    18    31    32   ar
    19     3     4   ar
    20     4     5   ar
    21     5     6   ar
    22     6     7    1
    23    11    12    1
    24    12    13    1
    25    13    14    1
    26    14    15    1
    27    16    15    1
    28    16    17    1
    29    17    18    1
    30    18    19    1
    31    18    20    1
    32    18     9    1
    33    16    11    1
    34     6     1   ar
    35    32    27   ar
    36     8    21    1
    37     8    22    1
    38    23    26    1
@<TRIPOS>MOLECULE
*****
 35 38 0 0 0
SMALL
GASTEIGER

@<TRIPOS>ATOM
      1 C         140.6840  142.7007  164.1881 C.ar    1  UNL1        0.0528
      2 C         140.6493  143.0988  162.7423 C.ar    1  UNL1        0.0167
      3 C         139.8646  144.3036  162.3148 C.ar    1  UNL1        0.0505
      4 C         139.1147  145.1103  163.3331 C.ar    1  UNL1        0.0170
      5 C         139.1495  144.7122  164.7788 C.ar    1  UNL1        0.0307
      6 C         139.9341  143.5074  165.2064 C.ar    1  UNL1        0.1402
      7 F         139.9689  143.1094  166.6521 F       1  UNL1       -0.2044
      8 N         144.3526  143.7791  163.1254 N.pl3   1  UNL1       -0.2456
      9 C         143.6528  142.6165  163.7647 C.2     1  UNL1        0.3505
     10 N         142.1684  142.6586  163.9764 N.2     1  UNL1       -0.0666
     11 C         141.4687  141.4959  164.6157 C.3     1  UNL1        0.2224
     12 C         139.9843  141.5381  164.8274 C.3     1  UNL1        0.1951
     13 O         139.2846  140.3755  165.4666 O.3     1  UNL1       -0.3490
     14 C         140.0693  139.1707  165.8941 C.3     1  UNL1        0.1425
     15 C         141.5536  139.1285  165.6824 C.3     1  UNL1        0.0369
     16 C         142.2533  140.2912  165.0432 C.3     1  UNL1        0.0601
     17 C         143.7378  140.2490  164.8314 C.3     1  UNL1        0.0837
     18 C         144.4375  141.4117  164.1922 C.3     1  UNL1        0.3553
     19 F         145.6060  140.5008  164.4259 F       1  UNL1       -0.1914
     20 F         145.5430  142.2580  163.6341 F       1  UNL1       -0.1914
     21 H         143.8376  144.5699  162.8448 H       1  UNL1        0.2883
     22 H         145.3268  143.7515  162.9865 H       1  UNL1        0.2883
     23 N         139.8298  144.7017  160.8690 N.am    1  UNL1       -0.2791
     24 C         141.1111  144.9059  160.1162 C.2     1  UNL1        0.2688
     25 O         142.4272  144.7120  160.8093 O.2     1  UNL1       -0.2681
     26 H         138.9660  144.8289  160.4141 H       1  UNL1        0.1552
     27 C         141.0764  145.3040  158.6705 C.ar    1  UNL1        0.1541
     28 C         142.2176  144.9444  157.7660 C.ar    1  UNL1        0.1258
     29 N         142.1829  145.3425  156.3201 N.ar    1  UNL1       -0.2070
     30 C         141.0068  146.1001  155.7789 C.ar    1  UNL1        0.2469
     31 C         139.8655  146.4597  156.6835 C.ar    1  UNL1        0.1566
     32 N         139.9003  146.0616  158.1292 N.ar    1  UNL1       -0.2328
     33 O         140.9721  146.4982  154.3331 O.3     1  UNL1       -0.4265
     34 C         140.2163  147.7230  153.9105 C.3     1  UNL1        0.4044
     35 F         140.5541  149.0565  154.5086 F       1  UNL1       -0.1809
@<TRIPOS>BOND
     1     8     9    1
     2     9    10    2
     3    10    11    1
     4    11     1    1
     5     1     2   ar
     6     2     3   ar
     7     3    23    1
     8    23    24   am
     9    24    25    2
    10    24    27    1
    11    27    28   ar
    12    28    29   ar
    13    29    30   ar
    14    30    33    1
    15    33    34    1
    16    34    35    1
    17    30    31   ar
    18    31    32   ar
    19     3     4   ar
    20     4     5   ar
    21     5     6   ar
    22     6     7    1
    23    11    12    1
    24    12    13    1
    25    13    14    1
    26    14    15    1
    27    16    15    1
    28    16    17    1
    29    17    18    1
    30    18    19    1
    31    18    20    1
    32    18     9    1
    33    16    11    1
    34     6     1   ar
    35    32    27   ar
    36     8    21    1
    37     8    22    1
    38    23    26    1
@<TRIPOS>MOLECULE
*****
 35 38 0 0 0
SMALL
GASTEIGER

@<TRIPOS>ATOM
      1 C         141.6042  140.2871  165.6008 C.ar    1  UNL1        0.0528
      2 C         141.2512  141.0102  164.3348 C.ar    1  UNL1        0.0167
      3 C         142.2656  141.1400  163.2375 C.ar    1  UNL1        0.0505
      4 C         143.6330  140.5466  163.4061 C.ar    1  UNL1        0.0170
      5 C         143.9859  139.8235  164.6720 C.ar    1  UNL1        0.0307
      6 C         142.9714  139.6938  165.7694 C.ar    1  UNL1        0.1402
      7 F         143.3243  138.9707  167.0353 F       1  UNL1       -0.2044
      8 N         143.2793  142.5017  168.4364 N.pl3   1  UNL1       -0.2456
      9 C         142.0446  141.6770  168.2227 C.2     1  UNL1        0.3505
     10 N         141.8244  140.9821  166.9118 N.2     1  UNL1       -0.0666
     11 C         140.5898  140.1574  166.6981 C.3     1  UNL1        0.2224
     12 C         140.3696  139.4625  165.3872 C.3     1  UNL1        0.1951
     13 O         139.1350  138.6378  165.1736 O.3     1  UNL1       -0.3490
     14 C         138.1206  138.5081  166.2710 C.3     1  UNL1        0.1425
     15 C         138.3408  139.2030  167.5819 C.3     1  UNL1        0.0369
     16 C         139.5754  140.0276  167.7955 C.3     1  UNL1        0.0601
     17 C         139.7956  140.7226  169.1065 C.3     1  UNL1        0.0837
     18 C         141.0302  141.5472  169.3200 C.3     1  UNL1        0.3553
     19 F         140.3643  141.7254  170.6522 F       1  UNL1       -0.1914
     20 F         142.0336  142.4337  169.9963 F       1  UNL1       -0.1914
     21 H         143.9451  142.5868  167.7161 H       1  UNL1        0.2883
     22 H         143.4238  142.9577  169.2968 H       1  UNL1        0.2883
     23 N         141.9128  141.8631  161.9716 N.am    1  UNL1       -0.2791
     24 C         142.0084  143.3588  161.9106 C.2     1  UNL1        0.2688
     25 O         142.4570  144.1314  163.1155 O.2     1  UNL1       -0.2681
     26 H         141.6184  141.3560  161.1807 H       1  UNL1        0.1552
     27 C         141.6556  144.0819  160.6446 C.ar    1  UNL1        0.1541
     28 C         140.3772  144.8618  160.5578 C.ar    1  UNL1        0.1258
     29 N         140.0243  145.5849  159.2919 N.ar    1  UNL1       -0.2070
     30 C         140.9498  145.5281  158.1128 C.ar    1  UNL1        0.2469
     31 C         142.2282  144.7482  158.1996 C.ar    1  UNL1        0.1566
     32 N         142.5810  144.0251  159.4655 N.ar    1  UNL1       -0.2328
     33 O         140.5969  146.2512  156.8468 O.3     1  UNL1       -0.4265
     34 C         139.3359  147.0600  156.7717 C.3     1  UNL1        0.4044
     35 F         138.7580  147.4260  155.4367 F       1  UNL1       -0.1809
@<TRIPOS>BOND
     1     8     9    1
     2     9    10    2
     3    10    11    1
     4    11     1    1
     5     1     2   ar
     6     2     3   ar
     7     3    23    1
     8    23    24   am
     9    24    25    2
    10    24    27    1
    11    27    28   ar
    12    28    29   ar
    13    29    30   ar
    14    30    33    1
    15    33    34    1
    16    34    35    1
    17    30    31   ar
    18    31    32   ar
    19     3     4   ar
    20     4     5   ar
    21     5     6   ar
    22     6     7    1
    23    11    12    1
    24    12    13    1
    25    13    14    1
    26    14    15    1
    27    16    15    1
    28    16    17    1
    29    17    18    1
    30    18    19    1
    31    18    20    1
    32    18     9    1
    33    16    11    1
    34     6     1   ar
    35    32    27   ar
    36     8    21    1
    37     8    22    1
    38    23    26    1
@<TRIPOS>MOLECULE
*****
 35 38 0 0 0
SMALL
GASTEIGER

@<TRIPOS>ATOM
      1 C         142.1555  141.3770  163.5411 C.ar    1  UNL1        0.0528
      2 C         141.7510  140.6291  162.3053 C.ar    1  UNL1        0.0167
      3 C         142.2089  139.2155  162.1006 C.ar    1  UNL1        0.0505
      4 C         143.0714  138.5497  163.1317 C.ar    1  UNL1        0.0170
      5 C         143.4758  139.2976  164.3674 C.ar    1  UNL1        0.0307
      6 C         143.0179  140.7112  164.5721 C.ar    1  UNL1        0.1402
      7 F         143.4223  141.4591  165.8078 F       1  UNL1       -0.2044
      8 N         138.3439  140.8014  164.4850 N.pl3   1  UNL1       -0.2456
      9 C         139.3091  141.9357  164.3068 C.2     1  UNL1        0.3505
     10 N         140.7323  141.6563  163.9240 N.2     1  UNL1       -0.0666
     11 C         141.6975  142.7906  163.7458 C.3     1  UNL1        0.2224
     12 C         143.1207  142.5113  163.3629 C.3     1  UNL1        0.1951
     13 O         144.0859  143.6456  163.1848 O.3     1  UNL1       -0.3490
     14 C         143.6279  145.0592  163.3895 C.3     1  UNL1        0.1425
     15 C         142.2048  145.3386  163.7724 C.3     1  UNL1        0.0369
     16 C         141.2396  144.2043  163.9505 C.3     1  UNL1        0.0601
     17 C         139.8164  144.4836  164.3334 C.3     1  UNL1        0.0837
     18 C         138.8512  143.3493  164.5115 C.3     1  UNL1        0.3553
     19 F         137.9493  144.5089  164.8147 F       1  UNL1       -0.1914
     20 F         137.5728  142.6177  164.7949 F       1  UNL1       -0.1914
     21 H         138.6444  139.8736  164.3506 H       1  UNL1        0.2883
     22 H         137.4098  140.9848  164.7363 H       1  UNL1        0.2883
     23 N         141.8045  138.4676  160.8649 N.am    1  UNL1       -0.2791
     24 C         142.6906  138.4838  159.6546 C.2     1  UNL1        0.2688
     25 O         143.9811  139.2480  159.6801 O.2     1  UNL1       -0.2681
     26 H         140.9575  137.9660  160.8481 H       1  UNL1        0.1552
     27 C         142.2861  137.7359  158.4189 C.ar    1  UNL1        0.1541
     28 C         140.9412  137.9798  157.8011 C.ar    1  UNL1        0.1258
     29 N         140.5367  137.2319  156.5654 N.ar    1  UNL1       -0.2070
     30 C         141.4772  136.2401  155.9474 C.ar    1  UNL1        0.2469
     31 C         142.8222  135.9963  156.5652 C.ar    1  UNL1        0.1566
     32 N         143.2266  136.7442  157.8009 N.ar    1  UNL1       -0.2328
     33 O         141.0727  135.4922  154.7117 O.3     1  UNL1       -0.4265
     34 C         141.2556  134.0051  154.6415 C.3     1  UNL1        0.4044
     35 F         141.4731  133.2161  155.8986 F       1  UNL1       -0.1809
@<TRIPOS>BOND
     1     8     9    1
     2     9    10    2
     3    10    11    1
     4    11     1    1
     5     1     2   ar
     6     2     3   ar
     7     3    23    1
     8    23    24   am
     9    24    25    2
    10    24    27    1
    11    27    28   ar
    12    28    29   ar
    13    29    30   ar
    14    30    33    1
    15    33    34    1
    16    34    35    1
    17    30    31   ar
    18    31    32   ar
    19     3     4   ar
    20     4     5   ar
    21     5     6   ar
    22     6     7    1
    23    11    12    1
    24    12    13    1
    25    13    14    1
    26    14    15    1
    27    16    15    1
    28    16    17    1
    29    17    18    1
    30    18    19    1
    31    18    20    1
    32    18     9    1
    33    16    11    1
    34     6     1   ar
    35    32    27   ar
    36     8    21    1
    37     8    22    1
    38    23    26    1
