@<TRIPOS>MOLECULE
*****
 20 22 0 0 0
SMALL
GASTEIGER

@<TRIPOS>ATOM
      1 C         138.8147  139.7169  166.1532 C.ar    1  UNL1        0.0671
      2 C         138.7132  140.6310  164.9682 C.ar    1  UNL1        0.0948
      3 N         139.3764  141.9281  165.3253 N.ar    1  UNL1       -0.3039
      4 C         139.8879  141.8157  166.7309 C.ar    1  UNL1        0.0653
      5 C         140.6249  142.7812  167.6110 C.ar    1  UNL1        0.0184
      6 C         141.0148  142.3801  169.0028 C.ar    1  UNL1        0.0129
      7 C         140.6676  141.0134  169.5145 C.ar    1  UNL1        0.0578
      8 CL        141.0575  140.6123  170.9063 Cl      1  UNL1       -0.0822
      9 C         139.9306  140.0479  168.6344 C.ar    1  UNL1        0.0141
     10 C         139.5408  140.4491  167.2426 C.ar    1  UNL1        0.0318
     11 C         139.5056  143.1272  164.4334 C.ar    1  UNL1        0.0642
     12 C         140.8393  143.7909  164.2573 C.ar    1  UNL1        0.0198
     13 C         140.9684  144.9899  163.3653 C.ar    1  UNL1        0.0311
     14 C         139.7639  145.5254  162.6495 C.ar    1  UNL1        0.1402
     15 F         139.8930  146.7244  161.7575 F       1  UNL1       -0.2042
     16 C         138.4303  144.8617  162.8255 C.ar    1  UNL1        0.0311
     17 C         138.3012  143.6627  163.7175 C.ar    1  UNL1        0.0198
     18 C         138.7853  137.2678  165.2865 C.3     1  UNL1        0.1123
     19 N         138.2835  138.3165  166.2345 N.pl3   1  UNL1       -0.3029
     20 C         137.2507  137.9646  167.2637 C.3     1  UNL1        0.1123
@<TRIPOS>BOND
     1    18    19    1
     2    19    20    1
     3    19     1    1
     4     1     2   ar
     5     2     3   ar
     6     3    11    1
     7    11    12   ar
     8    12    13   ar
     9    13    14   ar
    10    14    15    1
    11    14    16   ar
    12    16    17   ar
    13     3     4   ar
    14     4     5   ar
    15     5     6   ar
    16     6     7   ar
    17     7     8    1
    18     7     9   ar
    19     9    10   ar
    20    10     1   ar
    21    17    11   ar
    22    10     4   ar
@<TRIPOS>MOLECULE
*****
 20 22 0 0 0
SMALL
GASTEIGER

@<TRIPOS>ATOM
      1 C         142.5437  142.7378  164.1817 C.ar    1  UNL1        0.0671
      2 C         142.1576  141.4341  164.8150 C.ar    1  UNL1        0.0948
      3 N         140.6704  141.2818  164.6926 N.ar    1  UNL1       -0.3039
      4 C         140.1374  142.4914  163.9835 C.ar    1  UNL1        0.0653
      5 C         138.7474  142.8897  163.5847 C.ar    1  UNL1        0.0184
      6 C         138.5151  144.1879  162.8700 C.ar    1  UNL1        0.0129
      7 C         139.6729  145.0878  162.5542 C.ar    1  UNL1        0.0578
      8 CL        139.4407  146.3860  161.8395 Cl      1  UNL1       -0.0822
      9 C         141.0630  144.6895  162.9531 C.ar    1  UNL1        0.0141
     10 C         141.2952  143.3913  163.6678 C.ar    1  UNL1        0.0318
     11 C         139.8587  140.1233  165.1916 C.ar    1  UNL1        0.0642
     12 C         139.1079  140.2355  166.4854 C.ar    1  UNL1        0.0198
     13 C         138.2962  139.0770  166.9844 C.ar    1  UNL1        0.0311
     14 C         138.2352  137.8063  166.1896 C.ar    1  UNL1        0.1402
     15 F         137.4235  136.6478  166.6886 F       1  UNL1       -0.2042
     16 C         138.9860  137.6942  164.8959 C.ar    1  UNL1        0.0311
     17 C         139.7977  138.8527  164.3969 C.ar    1  UNL1        0.0198
     18 C         144.5766  143.4632  162.7354 C.3     1  UNL1        0.1123
     19 N         143.9343  143.2910  164.0800 N.pl3   1  UNL1       -0.3029
     20 C         144.6827  143.6720  165.3228 C.3     1  UNL1        0.1123
@<TRIPOS>BOND
     1    18    19    1
     2    19    20    1
     3    19     1    1
     4     1     2   ar
     5     2     3   ar
     6     3    11    1
     7    11    12   ar
     8    12    13   ar
     9    13    14   ar
    10    14    15    1
    11    14    16   ar
    12    16    17   ar
    13     3     4   ar
    14     4     5   ar
    15     5     6   ar
    16     6     7   ar
    17     7     8    1
    18     7     9   ar
    19     9    10   ar
    20    10     1   ar
    21    17    11   ar
    22    10     4   ar
@<TRIPOS>MOLECULE
*****
 20 22 0 0 0
SMALL
GASTEIGER

@<TRIPOS>ATOM
      1 C         141.0083  141.6445  168.3665 C.ar    1  UNL1        0.0671
      2 C         140.4389  142.7904  167.5837 C.ar    1  UNL1        0.0948
      3 N         140.8969  142.6534  166.1620 N.ar    1  UNL1       -0.3039
      4 C         141.7493  141.4229  166.0660 C.ar    1  UNL1        0.0653
      5 C         142.4717  140.7896  164.9140 C.ar    1  UNL1        0.0184
      6 C         143.2629  139.5328  165.1245 C.ar    1  UNL1        0.0129
      7 C         143.3318  138.9093  166.4871 C.ar    1  UNL1        0.0578
      8 CL        144.1231  137.6524  166.6975 Cl      1  UNL1       -0.0822
      9 C         142.6094  139.5425  167.6390 C.ar    1  UNL1        0.0141
     10 C         141.8182  140.7993  167.4285 C.ar    1  UNL1        0.0318
     11 C         140.5613  143.5836  165.0341 C.ar    1  UNL1        0.0642
     12 C         141.6577  144.2903  164.2932 C.ar    1  UNL1        0.0198
     13 C         141.3222  145.2205  163.1653 C.ar    1  UNL1        0.0311
     14 C         139.8903  145.4441  162.7783 C.ar    1  UNL1        0.1402
     15 F         139.5548  146.3743  161.6504 F       1  UNL1       -0.2042
     16 C         138.7941  144.7375  163.5191 C.ar    1  UNL1        0.0311
     17 C         139.1296  143.8073  164.6470 C.ar    1  UNL1        0.0198
     18 C         141.5861  142.1692  170.8446 C.3     1  UNL1        0.1123
     19 N         140.8037  141.3886  169.8303 N.pl3   1  UNL1       -0.3029
     20 C         139.8170  140.3523  170.2799 C.3     1  UNL1        0.1123
@<TRIPOS>BOND
     1    18    19    1
     2    19    20    1
     3    19     1    1
     4     1     2   ar
     5     2     3   ar
     6     3    11    1
     7    11    12   ar
     8    12    13   ar
     9    13    14   ar
    10    14    15    1
    11    14    16   ar
    12    16    17   ar
    13     3     4   ar
    14     4     5   ar
    15     5     6   ar
    16     6     7   ar
    17     7     8    1
    18     7     9   ar
    19     9    10   ar
    20    10     1   ar
    21    17    11   ar
    22    10     4   ar
@<TRIPOS>MOLECULE
*****
 20 22 0 0 0
SMALL
GASTEIGER

@<TRIPOS>ATOM
      1 C         139.1507  139.7893  163.6118 C.ar    1  UNL1        0.0671
      2 C         138.7291  140.3794  164.9249 C.ar    1  UNL1        0.0948
      3 N         139.9428  140.4749  165.8011 N.ar    1  UNL1       -0.3039
      4 C         141.1145  139.9440  165.0296 C.ar    1  UNL1        0.0653
      5 C         142.5639  139.7916  165.3844 C.ar    1  UNL1        0.0184
      6 C         143.5238  139.2155  164.3860 C.ar    1  UNL1        0.0129
      7 C         143.0342  138.7917  163.0330 C.ar    1  UNL1        0.0578
      8 CL        143.9942  138.2156  162.0346 Cl      1  UNL1       -0.0822
      9 C         141.5848  138.9441  162.6782 C.ar    1  UNL1        0.0141
     10 C         140.6249  139.5202  163.6765 C.ar    1  UNL1        0.0318
     11 C         139.9785  141.0079  167.2028 C.ar    1  UNL1        0.0642
     12 C         140.5298  142.3770  167.4707 C.ar    1  UNL1        0.0198
     13 C         140.5655  142.9100  168.8724 C.ar    1  UNL1        0.0311
     14 C         140.0501  142.0739  170.0061 C.ar    1  UNL1        0.1402
     15 F         140.0858  142.6069  171.4078 F       1  UNL1       -0.2042
     16 C         139.4989  140.7049  169.7381 C.ar    1  UNL1        0.0311
     17 C         139.4631  140.1719  168.3364 C.ar    1  UNL1        0.0198
     18 C         138.0024  138.1039  162.0020 C.3     1  UNL1        0.1123
     19 N         138.2553  139.5163  162.4398 N.pl3   1  UNL1       -0.3029
     20 C         137.6127  140.6554  161.7054 C.3     1  UNL1        0.1123
@<TRIPOS>BOND
     1    18    19    1
     2    19    20    1
     3    19     1    1
     4     1     2   ar
     5     2     3   ar
     6     3    11    1
     7    11    12   ar
     8    12    13   ar
     9    13    14   ar
    10    14    15    1
    11    14    16   ar
    12    16    17   ar
    13     3     4   ar
    14     4     5   ar
    15     5     6   ar
    16     6     7   ar
    17     7     8    1
    18     7     9   ar
    19     9    10   ar
    20    10     1   ar
    21    17    11   ar
    22    10     4   ar
@<TRIPOS>MOLECULE
*****
 20 22 0 0 0
SMALL
GASTEIGER

@<TRIPOS>ATOM
      1 C         139.4778  142.7822  164.3892 C.ar    1  UNL1        0.0671
      2 C         140.1996  142.8645  165.7015 C.ar    1  UNL1        0.0948
      3 N         140.3611  141.4700  166.2299 N.ar    1  UNL1       -0.3039
      4 C         139.7393  140.5258  165.2441 C.ar    1  UNL1        0.0653
      5 C         139.5996  139.0324  165.2354 C.ar    1  UNL1        0.0184
      6 C         138.9140  138.3499  164.0890 C.ar    1  UNL1        0.0129
      7 C         138.3681  139.1609  162.9514 C.ar    1  UNL1        0.0578
      8 CL        137.6825  138.4784  161.8050 Cl      1  UNL1       -0.0822
      9 C         138.5078  140.6544  162.9601 C.ar    1  UNL1        0.0141
     10 C         139.1934  141.3368  164.1064 C.ar    1  UNL1        0.0318
     11 C         141.0276  141.0869  167.5180 C.ar    1  UNL1        0.0642
     12 C         140.3249  140.1811  168.4855 C.ar    1  UNL1        0.0198
     13 C         140.9914  139.7980  169.7736 C.ar    1  UNL1        0.0311
     14 C         142.3604  140.3205  170.0941 C.ar    1  UNL1        0.1402
     15 F         143.0268  139.9374  171.3822 F       1  UNL1       -0.2042
     16 C         143.0629  141.2262  169.1266 C.ar    1  UNL1        0.0311
     17 C         142.3965  141.6093  167.8386 C.ar    1  UNL1        0.0198
     18 C         140.1685  144.8745  163.0125 C.3     1  UNL1        0.1123
     19 N         139.1059  143.9417  163.5133 N.pl3   1  UNL1       -0.3029
     20 C         137.6714  144.1684  163.1381 C.3     1  UNL1        0.1123
@<TRIPOS>BOND
     1    18    19    1
     2    19    20    1
     3    19     1    1
     4     1     2   ar
     5     2     3   ar
     6     3    11    1
     7    11    12   ar
     8    12    13   ar
     9    13    14   ar
    10    14    15    1
    11    14    16   ar
    12    16    17   ar
    13     3     4   ar
    14     4     5   ar
    15     5     6   ar
    16     6     7   ar
    17     7     8    1
    18     7     9   ar
    19     9    10   ar
    20    10     1   ar
    21    17    11   ar
    22    10     4   ar
@<TRIPOS>MOLECULE
*****
 20 22 0 0 0
SMALL
GASTEIGER

@<TRIPOS>ATOM
      1 C         141.6508  141.4744  168.2500 C.ar    1  UNL1        0.0671
      2 C         142.6981  141.9796  167.3024 C.ar    1  UNL1        0.0948
      3 N         142.3688  141.4671  165.9317 N.ar    1  UNL1       -0.3039
      4 C         141.1181  140.6452  166.0321 C.ar    1  UNL1        0.0653
      5 C         140.3259  139.8933  165.0040 C.ar    1  UNL1        0.0184
      6 C         139.0900  139.1459  165.4087 C.ar    1  UNL1        0.0129
      7 C         138.6462  139.1504  166.8415 C.ar    1  UNL1        0.0578
      8 CL        137.4102  138.4030  167.2462 Cl      1  UNL1       -0.0822
      9 C         139.4383  139.9024  167.8697 C.ar    1  UNL1        0.0141
     10 C         140.6742  140.6497  167.4649 C.ar    1  UNL1        0.0318
     11 C         143.1528  141.7302  164.6802 C.ar    1  UNL1        0.0642
     12 C         143.1343  143.0944  164.0566 C.ar    1  UNL1        0.0198
     13 C         143.9183  143.3576  162.8051 C.ar    1  UNL1        0.0311
     14 C         144.7206  142.2567  162.1772 C.ar    1  UNL1        0.1402
     15 F         145.5045  142.5198  160.9257 F       1  UNL1       -0.2042
     16 C         144.7390  140.8926  162.8008 C.ar    1  UNL1        0.0311
     17 C         143.9551  140.6294  164.0523 C.ar    1  UNL1        0.0198
     18 C         140.9898  143.0255  170.2268 C.3     1  UNL1        0.1123
     19 N         141.5905  141.7462  169.7240 N.pl3   1  UNL1       -0.3029
     20 C         142.1308  140.7389  170.6951 C.3     1  UNL1        0.1123
@<TRIPOS>BOND
     1    18    19    1
     2    19    20    1
     3    19     1    1
     4     1     2   ar
     5     2     3   ar
     6     3    11    1
     7    11    12   ar
     8    12    13   ar
     9    13    14   ar
    10    14    15    1
    11    14    16   ar
    12    16    17   ar
    13     3     4   ar
    14     4     5   ar
    15     5     6   ar
    16     6     7   ar
    17     7     8    1
    18     7     9   ar
    19     9    10   ar
    20    10     1   ar
    21    17    11   ar
    22    10     4   ar
@<TRIPOS>MOLECULE
*****
 20 22 0 0 0
SMALL
GASTEIGER

@<TRIPOS>ATOM
      1 C         139.7421  142.3516  163.9833 C.ar    1  UNL1        0.0671
      2 C         139.3186  141.9389  165.3618 C.ar    1  UNL1        0.0948
      3 N         140.5239  141.9944  166.2530 N.ar    1  UNL1       -0.3039
      4 C         141.6923  142.4415  165.4252 C.ar    1  UNL1        0.0653
      5 C         143.1337  142.6761  165.7676 C.ar    1  UNL1        0.0184
      6 C         144.0918  143.1315  164.7072 C.ar    1  UNL1        0.0129
      7 C         143.6086  143.3522  163.3044 C.ar    1  UNL1        0.0578
      8 CL        144.5669  143.8076  162.2440 Cl      1  UNL1       -0.0822
      9 C         142.1672  143.1176  162.9621 C.ar    1  UNL1        0.0141
     10 C         141.2090  142.6623  164.0225 C.ar    1  UNL1        0.0318
     11 C         140.5554  141.6614  167.7152 C.ar    1  UNL1        0.0642
     12 C         140.6768  140.2329  168.1566 C.ar    1  UNL1        0.0198
     13 C         140.7083  139.8998  169.6189 C.ar    1  UNL1        0.0311
     14 C         140.6184  140.9952  170.6397 C.ar    1  UNL1        0.1402
     15 F         140.6499  140.6621  172.1019 F       1  UNL1       -0.2042
     16 C         140.4970  142.4236  170.1983 C.ar    1  UNL1        0.0311
     17 C         140.4655  142.7567  168.7360 C.ar    1  UNL1        0.0198
     18 C         137.8482  143.5454  162.6647 C.3     1  UNL1        0.1123
     19 N         138.8544  142.4385  162.7773 N.pl3   1  UNL1       -0.3029
     20 C         138.9727  141.4186  161.6839 C.3     1  UNL1        0.1123
@<TRIPOS>BOND
     1    18    19    1
     2    19    20    1
     3    19     1    1
     4     1     2   ar
     5     2     3   ar
     6     3    11    1
     7    11    12   ar
     8    12    13   ar
     9    13    14   ar
    10    14    15    1
    11    14    16   ar
    12    16    17   ar
    13     3     4   ar
    14     4     5   ar
    15     5     6   ar
    16     6     7   ar
    17     7     8    1
    18     7     9   ar
    19     9    10   ar
    20    10     1   ar
    21    17    11   ar
    22    10     4   ar
@<TRIPOS>MOLECULE
*****
 20 22 0 0 0
SMALL
GASTEIGER

@<TRIPOS>ATOM
      1 C         139.3243  141.7521  163.4531 C.ar    1  UNL1        0.0671
      2 C         140.0837  141.4524  162.1947 C.ar    1  UNL1        0.0948
      3 N         140.2897  139.9685  162.1200 N.ar    1  UNL1       -0.3039
      4 C         139.6576  139.3511  163.3322 C.ar    1  UNL1        0.0653
      5 C         139.5483  137.9276  163.7922 C.ar    1  UNL1        0.0184
      6 C         138.8423  137.6065  165.0761 C.ar    1  UNL1        0.0129
      7 C         138.2457  138.7089  165.9000 C.ar    1  UNL1        0.0578
      8 CL        137.5397  138.3877  167.1840 Cl      1  UNL1       -0.0822
      9 C         138.3551  140.1324  165.4400 C.ar    1  UNL1        0.0141
     10 C         139.0610  140.4535  164.1561 C.ar    1  UNL1        0.0318
     11 C         141.0025  139.2313  161.0253 C.ar    1  UNL1        0.0642
     12 C         140.4650  139.2645  159.6252 C.ar    1  UNL1        0.0198
     13 C         141.1779  138.5273  158.5305 C.ar    1  UNL1        0.0311
     14 C         142.4282  137.7569  158.8358 C.ar    1  UNL1        0.1402
     15 F         143.1411  137.0198  157.7411 F       1  UNL1       -0.2042
     16 C         142.9657  137.7238  160.2358 C.ar    1  UNL1        0.0311
     17 C         142.2528  138.4610  161.3305 C.ar    1  UNL1        0.0198
     18 C         139.5863  143.7426  165.1023 C.3     1  UNL1        0.1123
     19 N         138.9024  143.1118  163.9256 N.pl3   1  UNL1       -0.3029
     20 C         137.7966  143.8407  163.2215 C.3     1  UNL1        0.1123
@<TRIPOS>BOND
     1    18    19    1
     2    19    20    1
     3    19     1    1
     4     1     2   ar
     5     2     3   ar
     6     3    11    1
     7    11    12   ar
     8    12    13   ar
     9    13    14   ar
    10    14    15    1
    11    14    16   ar
    12    16    17   ar
    13     3     4   ar
    14     4     5   ar
    15     5     6   ar
    16     6     7   ar
    17     7     8    1
    18     7     9   ar
    19     9    10   ar
    20    10     1   ar
    21    17    11   ar
    22    10     4   ar
@<TRIPOS>MOLECULE
*****
 20 22 0 0 0
SMALL
GASTEIGER

@<TRIPOS>ATOM
      1 C         140.0695  140.5497  163.8125 C.ar    1  UNL1        0.0671
      2 C         140.4788  140.4547  165.2524 C.ar    1  UNL1        0.0948
      3 N         140.9353  141.8133  165.6951 N.ar    1  UNL1       -0.3039
      4 C         140.8083  142.7478  164.5287 C.ar    1  UNL1        0.0653
      5 C         141.1107  144.2090  164.3758 C.ar    1  UNL1        0.0184
      6 C         140.8780  144.8893  163.0593 C.ar    1  UNL1        0.0129
      7 C         140.3429  144.1083  161.8958 C.ar    1  UNL1        0.0578
      8 CL        140.1102  144.7886  160.5793 Cl      1  UNL1       -0.0822
      9 C         140.0405  142.6471  162.0487 C.ar    1  UNL1        0.0141
     10 C         140.2732  141.9669  163.3651 C.ar    1  UNL1        0.0318
     11 C         141.4318  142.1739  167.0638 C.ar    1  UNL1        0.0642
     12 C         142.8711  141.9504  167.4226 C.ar    1  UNL1        0.0198
     13 C         143.3675  142.3111  168.7913 C.ar    1  UNL1        0.0311
     14 C         142.4248  142.8953  169.8013 C.ar    1  UNL1        0.1402
     15 F         142.9213  143.2560  171.1700 F       1  UNL1       -0.2042
     16 C         140.9856  143.1188  169.4425 C.ar    1  UNL1        0.0311
     17 C         140.4891  142.7581  168.0737 C.ar    1  UNL1        0.0198
     18 C         138.1188  139.4289  162.5128 C.3     1  UNL1        0.1123
     19 N         139.5482  139.4249  162.9680 N.pl3   1  UNL1       -0.3029
     20 C         140.4560  138.2962  162.5787 C.3     1  UNL1        0.1123
@<TRIPOS>BOND
     1    18    19    1
     2    19    20    1
     3    19     1    1
     4     1     2   ar
     5     2     3   ar
     6     3    11    1
     7    11    12   ar
     8    12    13   ar
     9    13    14   ar
    10    14    15    1
    11    14    16   ar
    12    16    17   ar
    13     3     4   ar
    14     4     5   ar
    15     5     6   ar
    16     6     7   ar
    17     7     8    1
    18     7     9   ar
    19     9    10   ar
    20    10     1   ar
    21    17    11   ar
    22    10     4   ar
