@<TRIPOS>MOLECULE
*****
 31 34 0 0 0
SMALL
GASTEIGER

@<TRIPOS>ATOM
      1 C         139.0135  141.0758  163.8048 C.2     1  UNL1        0.1078
      2 N         138.9734  142.5225  163.4108 N.2     1  UNL1       -0.1481
      3 N         139.0243  142.5966  161.9135 N.2     1  UNL1       -0.1516
      4 C         139.0957  141.1957  161.3821 C.2     1  UNL1        0.0979
      5 C         139.1660  140.6546  159.9849 C.3     1  UNL1        0.1651
      6 C         139.2297  139.1734  159.7567 C.2     1  UNL1        0.3110
      7 N         139.2230  138.2335  160.9256 N.2     1  UNL1       -0.0399
      8 C         139.1527  138.7746  162.3228 C.2     1  UNL1        0.2380
      9 C         139.0891  140.2557  162.5510 C.2     1  UNL1        0.0820
     10 C         140.6883  141.2445  168.7207 C.3     1  UNL1        0.0521
     11 C         139.8206  140.6269  167.6645 C.ar    1  UNL1        0.0590
     12 C         139.8509  141.1601  166.2628 C.ar    1  UNL1        0.0163
     13 C         138.9832  140.5426  165.2065 C.ar    1  UNL1        0.0219
     14 C         138.0853  139.3917  165.5520 C.ar    1  UNL1        0.0163
     15 C         138.0550  138.8585  166.9537 C.ar    1  UNL1        0.0590
     16 C         137.1571  137.7077  167.2991 C.3     1  UNL1        0.0521
     17 N         138.9227  139.4761  168.0099 N.ar    1  UNL1       -0.2540
     18 N         139.3000  138.6322  158.3594 N.am    1  UNL1       -0.1565
     19 C         140.5788  138.0370  157.8492 C.2     1  UNL1        0.3925
     20 O         141.7873  137.9830  158.7362 O.2     1  UNL1       -0.2238
     21 N         140.6491  137.4958  156.4520 N.am    1  UNL1       -0.2666
     22 H         138.5068  138.6676  157.7773 H       1  UNL1        0.3027
     23 H         139.8560  137.5312  155.8699 H       1  UNL1        0.1533
     24 C         141.9280  136.9006  155.9418 C.3     1  UNL1        0.0977
     25 C         142.9371  137.7700  155.2519 C.3     1  UNL1        0.0263
     26 C         142.1977  135.4360  156.1213 C.ar    1  UNL1       -0.0044
     27 C         141.4274  134.4279  155.3210 C.ar    1  UNL1       -0.0027
     28 C         141.6971  132.9633  155.5006 C.ar    1  UNL1       -0.0003
     29 C         142.7371  132.5068  156.4804 C.ar    1  UNL1       -0.0000
     30 C         143.5074  133.5149  157.2807 C.ar    1  UNL1       -0.0003
     31 C         143.2377  134.9795  157.1011 C.ar    1  UNL1       -0.0027
@<TRIPOS>BOND
     1    10    11    1
     2    11    12   ar
     3    12    13   ar
     4    13     1    1
     5     1     2    2
     6     2     3    1
     7     3     4    2
     8     4     5    1
     9     5     6    1
    10     6    18    1
    11    18    19   am
    12    19    20    2
    13    19    21   am
    14    21    24    1
    15    24    25    1
    16    24    26    1
    17    26    27   ar
    18    27    28   ar
    19    28    29   ar
    20    29    30   ar
    21    30    31   ar
    22     6     7    2
    23     7     8    1
    24     8     9    2
    25    13    14   ar
    26    14    15   ar
    27    15    16    1
    28    15    17   ar
    29    17    11   ar
    30     9     1    1
    31     9     4    1
    32    31    26   ar
    33    18    22    1
    34    21    23    1
@<TRIPOS>MOLECULE
*****
 31 34 0 0 0
SMALL
GASTEIGER

@<TRIPOS>ATOM
      1 C         141.8606  142.3034  166.0840 C.2     1  UNL1        0.1078
      2 N         143.3458  142.4731  166.2075 N.2     1  UNL1       -0.1481
      3 N         143.8060  143.3579  165.0871 N.2     1  UNL1       -0.1516
      4 C         142.6053  143.7350  164.2711 C.2     1  UNL1        0.0979
      5 C         142.4514  144.5877  163.0467 C.3     1  UNL1        0.1651
      6 C         141.0951  144.7886  162.4384 C.2     1  UNL1        0.3110
      7 N         139.8927  144.1369  163.0544 N.2     1  UNL1       -0.0399
      8 C         140.0466  143.2843  164.2789 C.2     1  UNL1        0.2380
      9 C         141.4029  143.0833  164.8872 C.2     1  UNL1        0.0820
     10 C         138.1075  138.7742  166.7617 C.3     1  UNL1        0.0521
     11 C         139.1099  139.7310  167.3358 C.ar    1  UNL1        0.0590
     12 C         139.9841  140.5388  166.4229 C.ar    1  UNL1        0.0163
     13 C         140.9865  141.4956  166.9969 C.ar    1  UNL1        0.0219
     14 C         141.1148  141.6447  168.4840 C.ar    1  UNL1        0.0163
     15 C         140.2407  140.8369  169.3969 C.ar    1  UNL1        0.0590
     16 C         140.3690  140.9860  170.8839 C.3     1  UNL1        0.0521
     17 N         139.2382  139.8801  168.8228 N.ar    1  UNL1       -0.2540
     18 N         140.9412  145.6413  161.2139 N.am    1  UNL1       -0.1565
     19 C         140.9871  145.0136  159.8523 C.2     1  UNL1        0.3925
     20 O         141.1869  143.5333  159.7152 O.2     1  UNL1       -0.2238
     21 N         140.8331  145.8662  158.6278 N.am    1  UNL1       -0.2666
     22 H         140.8100  146.6129  161.3039 H       1  UNL1        0.3027
     23 H         140.7020  146.8378  158.7178 H       1  UNL1        0.1533
     24 C         140.8791  145.2386  157.2662 C.3     1  UNL1        0.0977
     25 C         142.1970  145.0279  156.5815 C.3     1  UNL1        0.0263
     26 C         139.6071  144.8216  156.5893 C.ar    1  UNL1       -0.0044
     27 C         138.9176  145.7607  155.6444 C.ar    1  UNL1       -0.0027
     28 C         137.6457  145.3437  154.9675 C.ar    1  UNL1       -0.0003
     29 C         137.0632  143.9876  155.2354 C.ar    1  UNL1       -0.0000
     30 C         137.7526  143.0486  156.1803 C.ar    1  UNL1       -0.0003
     31 C         139.0246  143.4656  156.8573 C.ar    1  UNL1       -0.0027
@<TRIPOS>BOND
     1    10    11    1
     2    11    12   ar
     3    12    13   ar
     4    13     1    1
     5     1     2    2
     6     2     3    1
     7     3     4    2
     8     4     5    1
     9     5     6    1
    10     6    18    1
    11    18    19   am
    12    19    20    2
    13    19    21   am
    14    21    24    1
    15    24    25    1
    16    24    26    1
    17    26    27   ar
    18    27    28   ar
    19    28    29   ar
    20    29    30   ar
    21    30    31   ar
    22     6     7    2
    23     7     8    1
    24     8     9    2
    25    13    14   ar
    26    14    15   ar
    27    15    16    1
    28    15    17   ar
    29    17    11   ar
    30     9     1    1
    31     9     4    1
    32    31    26   ar
    33    18    22    1
    34    21    23    1
@<TRIPOS>MOLECULE
*****
 31 34 0 0 0
SMALL
GASTEIGER

@<TRIPOS>ATOM
      1 C         142.0660  142.3033  166.0338 C.2     1  UNL1        0.1078
      2 N         143.5330  142.5207  166.2594 N.2     1  UNL1       -0.1481
      3 N         144.0476  143.3937  165.1535 N.2     1  UNL1       -0.1516
      4 C         142.8987  143.7158  164.2444 C.2     1  UNL1        0.0979
      5 C         142.8096  144.5357  162.9915 C.3     1  UNL1        0.1651
      6 C         141.4957  144.6816  162.2827 C.2     1  UNL1        0.3110
      7 N         140.2711  144.0077  162.8267 N.2     1  UNL1       -0.0399
      8 C         140.3602  143.1878  164.0796 C.2     1  UNL1        0.2380
      9 C         141.6741  143.0419  164.7884 C.2     1  UNL1        0.0820
     10 C         140.4558  140.8501  170.7555 C.3     1  UNL1        0.0521
     11 C         140.3464  140.7634  169.2621 C.ar    1  UNL1        0.0590
     12 C         141.2609  141.5767  168.3946 C.ar    1  UNL1        0.0163
     13 C         141.1516  141.4900  166.9012 C.ar    1  UNL1        0.0219
     14 C         140.1278  140.5900  166.2751 C.ar    1  UNL1        0.0163
     15 C         139.2133  139.7768  167.1425 C.ar    1  UNL1        0.0590
     16 C         138.1896  138.8768  166.5164 C.3     1  UNL1        0.0521
     17 N         139.3227  139.8635  168.6360 N.ar    1  UNL1       -0.2540
     18 N         141.4065  145.5016  161.0297 N.am    1  UNL1       -0.1565
     19 C         141.2991  144.8237  159.6959 C.2     1  UNL1        0.3925
     20 O         141.2809  143.3260  159.6151 O.2     1  UNL1       -0.2238
     21 N         141.2099  145.6436  158.4430 N.am    1  UNL1       -0.2666
     22 H         141.4185  146.4846  161.0828 H       1  UNL1        0.3027
     23 H         141.2218  146.6265  158.4960 H       1  UNL1        0.1533
     24 C         141.1024  144.9657  157.1092 C.3     1  UNL1        0.0977
     25 C         142.3443  144.6049  156.3490 C.3     1  UNL1        0.0263
     26 C         139.7532  144.6486  156.5356 C.ar    1  UNL1       -0.0044
     27 C         139.0495  143.3836  156.9287 C.ar    1  UNL1       -0.0027
     28 C         137.7003  143.0665  156.3551 C.ar    1  UNL1       -0.0003
     29 C         137.0548  144.0144  155.3883 C.ar    1  UNL1       -0.0000
     30 C         137.7584  145.2794  154.9951 C.ar    1  UNL1       -0.0003
     31 C         139.1077  145.5965  155.5687 C.ar    1  UNL1       -0.0027
@<TRIPOS>BOND
     1    10    11    1
     2    11    12   ar
     3    12    13   ar
     4    13     1    1
     5     1     2    2
     6     2     3    1
     7     3     4    2
     8     4     5    1
     9     5     6    1
    10     6    18    1
    11    18    19   am
    12    19    20    2
    13    19    21   am
    14    21    24    1
    15    24    25    1
    16    24    26    1
    17    26    27   ar
    18    27    28   ar
    19    28    29   ar
    20    29    30   ar
    21    30    31   ar
    22     6     7    2
    23     7     8    1
    24     8     9    2
    25    13    14   ar
    26    14    15   ar
    27    15    16    1
    28    15    17   ar
    29    17    11   ar
    30     9     1    1
    31     9     4    1
    32    31    26   ar
    33    18    22    1
    34    21    23    1
@<TRIPOS>MOLECULE
*****
 31 34 0 0 0
SMALL
GASTEIGER

@<TRIPOS>ATOM
      1 C         138.6371  141.4951  162.9531 C.2     1  UNL1        0.1078
      2 N         138.1350  142.8171  162.4530 N.2     1  UNL1       -0.1481
      3 N         138.0545  142.7463  160.9568 N.2     1  UNL1       -0.1516
      4 C         138.5068  141.3806  160.5323 C.2     1  UNL1        0.0979
      5 C         138.6372  140.7413  159.1816 C.3     1  UNL1        0.1651
      6 C         139.1278  139.3287  159.0648 C.2     1  UNL1        0.3110
      7 N         139.4879  138.5553  160.2986 N.2     1  UNL1       -0.0399
      8 C         139.3575  139.1946  161.6492 C.2     1  UNL1        0.2380
      9 C         138.8669  140.6073  161.7660 C.2     1  UNL1        0.0820
     10 C         137.6748  138.4011  167.0153 C.3     1  UNL1        0.0521
     11 C         138.3877  139.5787  166.4194 C.ar    1  UNL1        0.0590
     12 C         138.1560  139.9481  164.9842 C.ar    1  UNL1        0.0163
     13 C         138.8688  141.1256  164.3883 C.ar    1  UNL1        0.0219
     14 C         139.8135  141.9339  165.2277 C.ar    1  UNL1        0.0163
     15 C         140.0452  141.5644  166.6629 C.ar    1  UNL1        0.0590
     16 C         140.9899  142.3726  167.5022 C.3     1  UNL1        0.0521
     17 N         139.3323  140.3869  167.2588 N.ar    1  UNL1       -0.2540
     18 N         139.2583  138.6893  157.7141 N.am    1  UNL1       -0.1565
     19 C         140.5546  138.0537  157.3073 C.2     1  UNL1        0.3925
     20 O         141.7205  138.0575  158.2512 O.2     1  UNL1       -0.2238
     21 N         140.6851  137.4143  155.9567 N.am    1  UNL1       -0.2666
     22 H         138.4931  138.6868  157.0947 H       1  UNL1        0.3027
     23 H         139.9200  137.4118  155.3373 H       1  UNL1        0.1533
     24 C         141.9815  136.7787  155.5499 C.3     1  UNL1        0.0977
     25 C         143.0019  137.5751  154.7918 C.3     1  UNL1        0.0263
     26 C         142.2575  135.3468  155.9012 C.ar    1  UNL1       -0.0044
     27 C         141.4875  134.2481  155.2303 C.ar    1  UNL1       -0.0027
     28 C         141.7636  132.8162  155.5816 C.ar    1  UNL1       -0.0003
     29 C         142.8095  132.4830  156.6038 C.ar    1  UNL1       -0.0000
     30 C         143.5795  133.5816  157.2747 C.ar    1  UNL1       -0.0003
     31 C         143.3035  135.0136  156.9234 C.ar    1  UNL1       -0.0027
@<TRIPOS>BOND
     1    10    11    1
     2    11    12   ar
     3    12    13   ar
     4    13     1    1
     5     1     2    2
     6     2     3    1
     7     3     4    2
     8     4     5    1
     9     5     6    1
    10     6    18    1
    11    18    19   am
    12    19    20    2
    13    19    21   am
    14    21    24    1
    15    24    25    1
    16    24    26    1
    17    26    27   ar
    18    27    28   ar
    19    28    29   ar
    20    29    30   ar
    21    30    31   ar
    22     6     7    2
    23     7     8    1
    24     8     9    2
    25    13    14   ar
    26    14    15   ar
    27    15    16    1
    28    15    17   ar
    29    17    11   ar
    30     9     1    1
    31     9     4    1
    32    31    26   ar
    33    18    22    1
    34    21    23    1
@<TRIPOS>MOLECULE
*****
 31 34 0 0 0
SMALL
GASTEIGER

@<TRIPOS>ATOM
      1 C         140.2410  145.4483  159.8101 C.2     1  UNL1        0.1078
      2 N         139.5383  146.5650  160.5236 N.2     1  UNL1       -0.1481
      3 N         139.9358  146.5143  161.9690 N.2     1  UNL1       -0.1516
      4 C         140.8843  145.3662  162.1489 C.2     1  UNL1        0.0979
      5 C         141.6005  144.8356  163.3553 C.3     1  UNL1        0.1651
      6 C         142.5053  143.6461  163.2274 C.2     1  UNL1        0.3110
      7 N         142.6940  142.9873  161.8931 N.2     1  UNL1       -0.0399
      8 C         141.9778  143.5179  160.6867 C.2     1  UNL1        0.2380
      9 C         141.0729  144.7074  160.8146 C.2     1  UNL1        0.0820
     10 C         139.4333  142.0023  156.0058 C.3     1  UNL1        0.0521
     11 C         139.7274  143.4057  156.4465 C.ar    1  UNL1        0.0590
     12 C         139.8372  143.7254  157.9080 C.ar    1  UNL1        0.0163
     13 C         140.1312  145.1286  158.3487 C.ar    1  UNL1        0.0219
     14 C         140.3155  146.2123  157.3280 C.ar    1  UNL1        0.0163
     15 C         140.2057  145.8925  155.8665 C.ar    1  UNL1        0.0590
     16 C         140.3900  146.9762  154.8459 C.3     1  UNL1        0.0521
     17 N         139.9116  144.4892  155.4258 N.ar    1  UNL1       -0.2540
     18 N         143.2216  143.1154  164.4339 N.am    1  UNL1       -0.1565
     19 C         142.5130  142.1937  165.3816 C.2     1  UNL1        0.3925
     20 O         141.0881  141.8026  165.1229 O.2     1  UNL1       -0.2238
     21 N         143.2292  141.6630  166.5880 N.am    1  UNL1       -0.2666
     22 H         144.1568  143.3721  164.6036 H       1  UNL1        0.3027
     23 H         144.1644  141.9197  166.7577 H       1  UNL1        0.1533
     24 C         142.5206  140.7412  167.5357 C.3     1  UNL1        0.0977
     25 C         142.7967  139.2673  167.4956 C.3     1  UNL1        0.0263
     26 C         141.5360  141.2932  168.5235 C.ar    1  UNL1       -0.0044
     27 C         140.4050  140.4381  169.0129 C.ar    1  UNL1       -0.0027
     28 C         139.4203  140.9901  170.0007 C.ar    1  UNL1       -0.0003
     29 C         139.5667  142.3973  170.4991 C.ar    1  UNL1       -0.0000
     30 C         140.6976  143.2524  170.0097 C.ar    1  UNL1       -0.0003
     31 C         141.6824  142.7004  169.0218 C.ar    1  UNL1       -0.0027
@<TRIPOS>BOND
     1    10    11    1
     2    11    12   ar
     3    12    13   ar
     4    13     1    1
     5     1     2    2
     6     2     3    1
     7     3     4    2
     8     4     5    1
     9     5     6    1
    10     6    18    1
    11    18    19   am
    12    19    20    2
    13    19    21   am
    14    21    24    1
    15    24    25    1
    16    24    26    1
    17    26    27   ar
    18    27    28   ar
    19    28    29   ar
    20    29    30   ar
    21    30    31   ar
    22     6     7    2
    23     7     8    1
    24     8     9    2
    25    13    14   ar
    26    14    15   ar
    27    15    16    1
    28    15    17   ar
    29    17    11   ar
    30     9     1    1
    31     9     4    1
    32    31    26   ar
    33    18    22    1
    34    21    23    1
@<TRIPOS>MOLECULE
*****
 31 34 0 0 0
SMALL
GASTEIGER

@<TRIPOS>ATOM
      1 C         143.7038  138.6575  156.1359 C.2     1  UNL1        0.1078
      2 N         145.1219  138.8746  155.6979 N.2     1  UNL1       -0.1481
      3 N         145.5901  140.1786  156.2727 N.2     1  UNL1       -0.1516
      4 C         144.4613  140.7674  157.0660 C.2     1  UNL1        0.0979
      5 C         144.3445  142.0381  157.8544 C.3     1  UNL1        0.1651
      6 C         143.0618  142.3687  158.5583 C.2     1  UNL1        0.3110
      7 N         141.8960  141.4286  158.4737 N.2     1  UNL1       -0.0399
      8 C         142.0129  140.1579  157.6853 C.2     1  UNL1        0.2380
      9 C         143.2955  139.8273  156.9814 C.2     1  UNL1        0.0820
     10 C         142.6631  133.5812  156.5193 C.3     1  UNL1        0.0521
     11 C         142.3243  134.9396  155.9809 C.ar    1  UNL1        0.0590
     12 C         143.1834  136.1194  156.3275 C.ar    1  UNL1        0.0163
     13 C         142.8447  137.4778  155.7892 C.ar    1  UNL1        0.0219
     14 C         141.6469  137.6565  154.9041 C.ar    1  UNL1        0.0163
     15 C         140.7878  136.4767  154.5574 C.ar    1  UNL1        0.0590
     16 C         139.5900  136.6555  153.6724 C.3     1  UNL1        0.0521
     17 N         141.1265  135.1183  155.0958 N.ar    1  UNL1       -0.2540
     18 N         142.9449  143.6394  159.3467 N.am    1  UNL1       -0.1565
     19 C         142.7679  143.5849  160.8353 C.2     1  UNL1        0.3925
     20 O         142.7079  142.2595  161.5353 O.2     1  UNL1       -0.2238
     21 N         142.6510  144.8555  161.6237 N.am    1  UNL1       -0.2666
     22 H         142.9843  144.5092  158.8873 H       1  UNL1        0.3027
     23 H         142.6904  145.7253  161.1643 H       1  UNL1        0.1533
     24 C         142.4740  144.8009  163.1123 C.3     1  UNL1        0.0977
     25 C         143.6408  145.0675  164.0165 C.3     1  UNL1        0.0263
     26 C         141.1304  144.4798  163.6965 C.ar    1  UNL1       -0.0044
     27 C         141.0321  143.6307  164.9292 C.ar    1  UNL1       -0.0027
     28 C         139.6884  143.3095  165.5135 C.ar    1  UNL1       -0.0003
     29 C         138.4430  143.8375  164.8651 C.ar    1  UNL1       -0.0000
     30 C         138.5413  144.6865  163.6325 C.ar    1  UNL1       -0.0003
     31 C         139.8850  145.0077  163.0482 C.ar    1  UNL1       -0.0027
@<TRIPOS>BOND
     1    10    11    1
     2    11    12   ar
     3    12    13   ar
     4    13     1    1
     5     1     2    2
     6     2     3    1
     7     3     4    2
     8     4     5    1
     9     5     6    1
    10     6    18    1
    11    18    19   am
    12    19    20    2
    13    19    21   am
    14    21    24    1
    15    24    25    1
    16    24    26    1
    17    26    27   ar
    18    27    28   ar
    19    28    29   ar
    20    29    30   ar
    21    30    31   ar
    22     6     7    2
    23     7     8    1
    24     8     9    2
    25    13    14   ar
    26    14    15   ar
    27    15    16    1
    28    15    17   ar
    29    17    11   ar
    30     9     1    1
    31     9     4    1
    32    31    26   ar
    33    18    22    1
    34    21    23    1
@<TRIPOS>MOLECULE
*****
 31 34 0 0 0
SMALL
GASTEIGER

@<TRIPOS>ATOM
      1 C         141.3494  141.4097  164.7758 C.2     1  UNL1        0.1078
      2 N         141.6505  142.8522  164.4956 N.2     1  UNL1       -0.1481
      3 N         142.3436  142.9315  163.1677 N.2     1  UNL1       -0.1516
      4 C         142.4708  141.5381  162.6272 C.2     1  UNL1        0.0979
      5 C         143.0668  141.0042  161.3585 C.3     1  UNL1        0.1651
      6 C         143.0483  139.5298  161.0836 C.2     1  UNL1        0.3110
      7 N         142.4338  138.5892  162.0774 N.2     1  UNL1       -0.0399
      8 C         141.8378  139.1231  163.3462 C.2     1  UNL1        0.2380
      9 C         141.8563  140.5975  163.6211 C.2     1  UNL1        0.0820
     10 C         140.9051  141.1622  169.9470 C.3     1  UNL1        0.0521
     11 C         140.4398  140.7497  168.5820 C.ar    1  UNL1        0.0590
     12 C         141.1272  141.2859  167.3614 C.ar    1  UNL1        0.0163
     13 C         140.6619  140.8735  165.9964 C.ar    1  UNL1        0.0219
     14 C         139.5090  139.9247  165.8520 C.ar    1  UNL1        0.0163
     15 C         138.8216  139.3884  167.0726 C.ar    1  UNL1        0.0590
     16 C         137.6688  138.4397  166.9281 C.3     1  UNL1        0.0521
     17 N         139.2869  139.8009  168.4376 N.ar    1  UNL1       -0.2540
     18 N         143.6443  138.9958  159.8148 N.am    1  UNL1       -0.1565
     19 C         142.7598  138.3779  158.7727 C.2     1  UNL1        0.3925
     20 O         141.2794  138.2939  158.9994 O.2     1  UNL1       -0.2238
     21 N         143.3557  137.8440  157.5040 N.am    1  UNL1       -0.2666
     22 H         144.6159  139.0509  159.6660 H       1  UNL1        0.3027
     23 H         144.3273  137.8991  157.3552 H       1  UNL1        0.1533
     24 C         142.4713  137.2260  156.4619 C.3     1  UNL1        0.0977
     25 C         141.6622  138.1006  155.5505 C.3     1  UNL1        0.0263
     26 C         142.3959  135.7337  156.3313 C.ar    1  UNL1       -0.0044
     27 C         141.4575  135.1141  155.3384 C.ar    1  UNL1       -0.0027
     28 C         141.3821  133.6218  155.2077 C.ar    1  UNL1       -0.0003
     29 C         142.2451  132.7489  156.0699 C.ar    1  UNL1       -0.0000
     30 C         143.1834  133.3683  157.0627 C.ar    1  UNL1       -0.0003
     31 C         143.2588  134.8607  157.1934 C.ar    1  UNL1       -0.0027
@<TRIPOS>BOND
     1    10    11    1
     2    11    12   ar
     3    12    13   ar
     4    13     1    1
     5     1     2    2
     6     2     3    1
     7     3     4    2
     8     4     5    1
     9     5     6    1
    10     6    18    1
    11    18    19   am
    12    19    20    2
    13    19    21   am
    14    21    24    1
    15    24    25    1
    16    24    26    1
    17    26    27   ar
    18    27    28   ar
    19    28    29   ar
    20    29    30   ar
    21    30    31   ar
    22     6     7    2
    23     7     8    1
    24     8     9    2
    25    13    14   ar
    26    14    15   ar
    27    15    16    1
    28    15    17   ar
    29    17    11   ar
    30     9     1    1
    31     9     4    1
    32    31    26   ar
    33    18    22    1
    34    21    23    1
@<TRIPOS>MOLECULE
*****
 31 34 0 0 0
SMALL
GASTEIGER

@<TRIPOS>ATOM
      1 C         142.2738  142.2050  164.4181 C.2     1  UNL1        0.1078
      2 N         142.1723  143.5894  163.8498 N.2     1  UNL1       -0.1481
      3 N         142.5182  143.5185  162.3920 N.2     1  UNL1       -0.1516
      4 C         142.8335  142.0902  162.0593 C.2     1  UNL1        0.0979
      5 C         143.2386  141.4241  160.7779 C.3     1  UNL1        0.1651
      6 C         143.4926  139.9461  160.7487 C.2     1  UNL1        0.3110
      7 N         143.3416  139.1342  162.0010 N.2     1  UNL1       -0.0399
      8 C         142.9365  139.8004  163.2824 C.2     1  UNL1        0.2380
      9 C         142.6824  141.2784  163.3115 C.2     1  UNL1        0.0820
     10 C         139.3015  139.8407  167.9643 C.3     1  UNL1        0.0521
     11 C         140.5264  140.6333  167.6160 C.ar    1  UNL1        0.0590
     12 C         140.7877  141.0228  166.1912 C.ar    1  UNL1        0.0163
     13 C         142.0125  141.8154  165.8429 C.ar    1  UNL1        0.0219
     14 C         142.9763  142.2185  166.9195 C.ar    1  UNL1        0.0163
     15 C         142.7150  141.8289  168.3443 C.ar    1  UNL1        0.0590
     16 C         143.6787  142.2320  169.4207 C.3     1  UNL1        0.0521
     17 N         141.4901  141.0363  168.6925 N.ar    1  UNL1       -0.2540
     18 N         143.8978  139.2798  159.4673 N.am    1  UNL1       -0.1565
     19 C         142.8783  138.5428  158.6503 C.2     1  UNL1        0.3925
     20 O         141.4537  138.4721  159.1147 O.2     1  UNL1       -0.2238
     21 N         143.2834  137.8766  157.3689 N.am    1  UNL1       -0.2666
     22 H         144.8328  139.3262  159.1625 H       1  UNL1        0.3027
     23 H         144.2184  137.9230  157.0641 H       1  UNL1        0.1533
     24 C         142.2639  137.1396  156.5518 C.3     1  UNL1        0.0977
     25 C         141.1811  137.8974  155.8424 C.3     1  UNL1        0.0263
     26 C         142.3272  135.6448  156.4443 C.ar    1  UNL1       -0.0044
     27 C         141.4504  134.9257  155.4623 C.ar    1  UNL1       -0.0027
     28 C         141.5137  133.4309  155.3547 C.ar    1  UNL1       -0.0003
     29 C         142.4537  132.6552  156.2291 C.ar    1  UNL1       -0.0000
     30 C         143.3305  133.3742  157.2110 C.ar    1  UNL1       -0.0003
     31 C         143.2672  134.8690  157.3187 C.ar    1  UNL1       -0.0027
@<TRIPOS>BOND
     1    10    11    1
     2    11    12   ar
     3    12    13   ar
     4    13     1    1
     5     1     2    2
     6     2     3    1
     7     3     4    2
     8     4     5    1
     9     5     6    1
    10     6    18    1
    11    18    19   am
    12    19    20    2
    13    19    21   am
    14    21    24    1
    15    24    25    1
    16    24    26    1
    17    26    27   ar
    18    27    28   ar
    19    28    29   ar
    20    29    30   ar
    21    30    31   ar
    22     6     7    2
    23     7     8    1
    24     8     9    2
    25    13    14   ar
    26    14    15   ar
    27    15    16    1
    28    15    17   ar
    29    17    11   ar
    30     9     1    1
    31     9     4    1
    32    31    26   ar
    33    18    22    1
    34    21    23    1
@<TRIPOS>MOLECULE
*****
 31 34 0 0 0
SMALL
GASTEIGER

@<TRIPOS>ATOM
      1 C         139.4029  139.8543  164.0718 C.2     1  UNL1        0.1078
      2 N         138.7928  138.5350  164.4424 N.2     1  UNL1       -0.1481
      3 N         138.7456  137.6833  163.2085 N.2     1  UNL1       -0.1516
      4 C         139.3264  138.4762  162.0754 C.2     1  UNL1        0.0979
      5 C         139.5378  138.1499  160.6267 C.3     1  UNL1        0.1651
      6 C         140.1555  139.1652  159.7116 C.2     1  UNL1        0.3110
      7 N         140.5618  140.5069  160.2452 N.2     1  UNL1       -0.0399
      8 C         140.3503  140.8333  161.6938 C.2     1  UNL1        0.2380
      9 C         139.7326  139.8180  162.6090 C.2     1  UNL1        0.0820
     10 C         141.5126  141.7709  168.4164 C.3     1  UNL1        0.0521
     11 C         140.6962  141.9658  167.1732 C.ar    1  UNL1        0.0590
     12 C         140.4577  140.8126  166.2441 C.ar    1  UNL1        0.0163
     13 C         139.6413  141.0075  165.0010 C.ar    1  UNL1        0.0219
     14 C         139.0633  142.3556  164.6870 C.ar    1  UNL1        0.0163
     15 C         139.3017  143.5088  165.6161 C.ar    1  UNL1        0.0590
     16 C         138.7237  144.8568  165.3021 C.3     1  UNL1        0.0521
     17 N         140.1182  143.3139  166.8593 N.ar    1  UNL1       -0.2540
     18 N         140.3670  138.8388  158.2628 N.am    1  UNL1       -0.1565
     19 C         141.5098  137.9586  157.8514 C.2     1  UNL1        0.3925
     20 O         142.4411  137.4048  158.8888 O.2     1  UNL1       -0.2238
     21 N         141.7213  137.6322  156.4027 N.am    1  UNL1       -0.2666
     22 H         139.7558  139.2023  157.5820 H       1  UNL1        0.3027
     23 H         141.1100  137.9957  155.7219 H       1  UNL1        0.1533
     24 C         142.8641  136.7520  155.9913 C.3     1  UNL1        0.0977
     25 C         144.1365  137.3632  155.4838 C.3     1  UNL1        0.0263
     26 C         142.7345  135.2608  156.0874 C.ar    1  UNL1       -0.0044
     27 C         141.7214  134.5403  155.2479 C.ar    1  UNL1       -0.0027
     28 C         141.5918  133.0490  155.3440 C.ar    1  UNL1       -0.0003
     29 C         142.4752  132.2781  156.2795 C.ar    1  UNL1       -0.0000
     30 C         143.4882  132.9985  157.1190 C.ar    1  UNL1       -0.0003
     31 C         143.6179  134.4899  157.0230 C.ar    1  UNL1       -0.0027
@<TRIPOS>BOND
     1    10    11    1
     2    11    12   ar
     3    12    13   ar
     4    13     1    1
     5     1     2    2
     6     2     3    1
     7     3     4    2
     8     4     5    1
     9     5     6    1
    10     6    18    1
    11    18    19   am
    12    19    20    2
    13    19    21   am
    14    21    24    1
    15    24    25    1
    16    24    26    1
    17    26    27   ar
    18    27    28   ar
    19    28    29   ar
    20    29    30   ar
    21    30    31   ar
    22     6     7    2
    23     7     8    1
    24     8     9    2
    25    13    14   ar
    26    14    15   ar
    27    15    16    1
    28    15    17   ar
    29    17    11   ar
    30     9     1    1
    31     9     4    1
    32    31    26   ar
    33    18    22    1
    34    21    23    1
