@<TRIPOS>MOLECULE
*****
 32 36 0 0 0
SMALL
GASTEIGER

@<TRIPOS>ATOM
      1 C         142.5334  140.7080  163.8187 C.ar    1  UNL1        0.0832
      2 C         141.6858  141.7535  163.1566 C.ar    1  UNL1        0.0507
      3 C         141.0044  142.8019  163.9853 C.ar    1  UNL1        0.1347
      4 N         141.1707  142.8047  165.4760 N.ar    1  UNL1       -0.2122
      5 C         142.0183  141.7591  166.1381 C.ar    1  UNL1        0.1600
      6 N         142.6996  140.7107  165.3095 N.ar    1  UNL1       -0.2295
      7 C         142.1845  141.7619  167.6289 C.2     1  UNL1        0.0230
      8 C         143.4399  142.3072  168.2425 C.2     1  UNL1       -0.0005
      9 C         143.6061  142.3101  169.7332 C.2     1  UNL1        0.0010
     10 C         142.5170  141.7675  170.6104 C.2     1  UNL1        0.0153
     11 C         141.2616  141.2222  169.9968 C.2     1  UNL1        0.0669
     12 N         140.0256  140.6257  170.6022 N.2     1  UNL1       -0.2478
     13 C         139.0955  140.2542  169.4856 C.2     1  UNL1        0.0946
     14 C         139.7566  140.6211  168.1901 C.2     1  UNL1        0.0046
     15 C         141.0954  141.2194  168.5060 C.3     1  UNL1        0.0888
     16 C         143.2147  139.6596  162.9900 C.3     1  UNL1        0.1482
     17 C         141.7923  139.1971  162.8771 C.3     1  UNL1        0.0447
     18 C         141.4631  137.9733  162.0747 C.3     1  UNL1        0.0707
     19 N         142.5562  137.2120  161.3852 N.3     1  UNL1       -0.2974
     20 C         143.9786  137.6745  161.4982 C.3     1  UNL1        0.0707
     21 C         144.3079  138.8983  162.3006 C.3     1  UNL1        0.0447
     22 H         142.3274  137.2035  160.3912 H       1  UNL1        0.1232
     23 C         145.5863  141.3128  163.7914 C.3     1  UNL1        0.1764
     24 S         144.4005  140.4862  163.3907 S.O2    1  UNL1       -0.0064
     25 O         144.3170  141.4776  162.6932 O.2     1  UNL1       -0.1727
     26 O         144.8025  139.4310  164.3782 O.2     1  UNL1       -0.1727
     27 N         140.1568  143.8475  163.3232 N.pl3   1  UNL1       -0.2880
     28 C         140.8048  144.9865  162.5933 C.3     1  UNL1        0.1242
     29 C         139.9572  146.0321  161.9312 C.3     1  UNL1        0.1636
     30 O         138.4616  145.9385  161.9990 O.3     1  UNL1       -0.3501
     31 C         137.8137  144.7995  162.7288 C.3     1  UNL1        0.1636
     32 C         138.6613  143.7540  163.3910 C.3     1  UNL1        0.1242
@<TRIPOS>BOND
     1    23    24    1
     2    24    25    2
     3    24    26    2
     4    24    16    1
     5    16     1    1
     6     1     2   ar
     7     2     3   ar
     8     3    27    1
     9    27    28    1
    10    28    29    1
    11    29    30    1
    12    30    31    1
    13    31    32    1
    14     3     4   ar
    15     4     5   ar
    16     5     7    1
    17     7     8    2
    18     8     9    1
    19     9    10    2
    20    10    11    1
    21    11    12    2
    22    12    13    1
    23    13    14    2
    24    14    15    1
    25     5     6   ar
    26    16    17    1
    27    17    18    1
    28    18    19    1
    29    19    20    1
    30    20    21    1
    31    21    16    1
    32     6     1   ar
    33    32    27    1
    34    15     7    1
    35    15    11    1
    36    19    22    1
@<TRIPOS>MOLECULE
*****
 32 36 0 0 0
SMALL
GASTEIGER

@<TRIPOS>ATOM
      1 C         142.0723  140.4465  163.9065 C.ar    1  UNL1        0.0832
      2 C         141.2883  141.5360  163.2368 C.ar    1  UNL1        0.0507
      3 C         140.7550  142.6816  164.0451 C.ar    1  UNL1        0.1347
      4 N         141.0056  142.7378  165.5228 N.ar    1  UNL1       -0.2122
      5 C         141.7897  141.6483  166.1925 C.ar    1  UNL1        0.1600
      6 N         142.3230  140.5027  165.3844 N.ar    1  UNL1       -0.2295
      7 C         142.0403  141.7045  167.6704 C.2     1  UNL1        0.0230
      8 C         143.3276  142.2713  168.1917 C.2     1  UNL1       -0.0005
      9 C         143.5782  142.3275  169.6695 C.2     1  UNL1        0.0010
     10 C         142.5417  141.8169  170.6261 C.2     1  UNL1        0.0153
     11 C         141.2544  141.2502  170.1047 C.2     1  UNL1        0.0669
     12 N         140.0560  140.6760  170.8004 N.2     1  UNL1       -0.2478
     13 C         139.0646  140.2650  169.7524 C.2     1  UNL1        0.0946
     14 C         139.6503  140.5851  168.4092 C.2     1  UNL1        0.0046
     15 C         141.0038  141.1940  168.6269 C.3     1  UNL1        0.0888
     16 C         142.6056  139.3009  163.0984 C.3     1  UNL1        0.1482
     17 C         143.4256  140.4225  162.5331 C.3     1  UNL1        0.0447
     18 C         144.4299  140.1470  161.4534 C.3     1  UNL1        0.0707
     19 N         144.6141  138.7501  160.9391 N.3     1  UNL1       -0.2974
     20 C         143.7940  137.6286  161.5044 C.3     1  UNL1        0.0707
     21 C         142.7898  137.9039  162.5841 C.3     1  UNL1        0.0447
     22 H         145.5924  138.5062  161.0932 H       1  UNL1        0.1232
     23 C         140.5950  137.8535  164.7903 C.3     1  UNL1        0.1764
     24 S         141.6004  138.5772  163.9443 S.O2    1  UNL1       -0.0064
     25 O         140.5373  138.8154  163.4062 O.2     1  UNL1       -0.1727
     26 O         142.7021  138.0936  164.8400 O.2     1  UNL1       -0.1727
     27 N         139.9710  143.7710  163.3753 N.pl3   1  UNL1       -0.2880
     28 C         140.6865  144.8931  162.6832 C.3     1  UNL1        0.1242
     29 C         139.9025  145.9825  162.0135 C.3     1  UNL1        0.1636
     30 O         138.4030  145.9498  162.0360 O.3     1  UNL1       -0.3501
     31 C         137.6875  144.8278  162.7280 C.3     1  UNL1        0.1636
     32 C         138.4715  143.7384  163.3977 C.3     1  UNL1        0.1242
@<TRIPOS>BOND
     1    23    24    1
     2    24    25    2
     3    24    26    2
     4    24    16    1
     5    16     1    1
     6     1     2   ar
     7     2     3   ar
     8     3    27    1
     9    27    28    1
    10    28    29    1
    11    29    30    1
    12    30    31    1
    13    31    32    1
    14     3     4   ar
    15     4     5   ar
    16     5     7    1
    17     7     8    2
    18     8     9    1
    19     9    10    2
    20    10    11    1
    21    11    12    2
    22    12    13    1
    23    13    14    2
    24    14    15    1
    25     5     6   ar
    26    16    17    1
    27    17    18    1
    28    18    19    1
    29    19    20    1
    30    20    21    1
    31    21    16    1
    32     6     1   ar
    33    32    27    1
    34    15     7    1
    35    15    11    1
    36    19    22    1
@<TRIPOS>MOLECULE
*****
 32 36 0 0 0
SMALL
GASTEIGER

@<TRIPOS>ATOM
      1 C         142.3137  140.5483  163.0618 C.ar    1  UNL1        0.0832
      2 C         141.8959  141.7622  162.2862 C.ar    1  UNL1        0.0507
      3 C         141.0315  142.8042  162.9322 C.ar    1  UNL1        0.1347
      4 N         140.5850  142.6321  164.3538 N.ar    1  UNL1       -0.2122
      5 C         141.0029  141.4181  165.1295 C.ar    1  UNL1        0.1600
      6 N         141.8672  140.3761  164.4835 N.ar    1  UNL1       -0.2295
      7 C         140.5563  141.2460  166.5511 C.2     1  UNL1        0.0230
      8 C         141.1818  142.0686  167.6384 C.2     1  UNL1       -0.0005
      9 C         140.7353  141.8965  169.0600 C.2     1  UNL1        0.0010
     10 C         139.6633  140.9019  169.3944 C.2     1  UNL1        0.0153
     11 C         139.0379  140.0794  168.3070 C.2     1  UNL1        0.0669
     12 N         137.9679  139.0285  168.3329 N.2     1  UNL1       -0.2478
     13 C         137.7531  138.5511  166.9272 C.2     1  UNL1        0.0946
     14 C         138.6904  139.3069  166.0326 C.2     1  UNL1        0.0046
     15 C         139.4844  140.2515  166.8854 C.3     1  UNL1        0.0888
     16 C         143.1780  139.5063  162.4159 C.3     1  UNL1        0.1482
     17 C         141.8353  139.0936  161.8897 C.3     1  UNL1        0.0447
     18 C         141.7190  137.9080  160.9782 C.3     1  UNL1        0.0707
     19 N         142.9454  137.1351  160.5929 N.3     1  UNL1       -0.2974
     20 C         144.2881  137.5478  161.1191 C.3     1  UNL1        0.0707
     21 C         144.4044  138.7334  162.0305 C.3     1  UNL1        0.0447
     22 H         143.0056  137.1665  159.5752 H       1  UNL1        0.1232
     23 C         145.2631  141.0553  163.9168 C.3     1  UNL1        0.1764
     24 S         144.2205  140.2808  163.1663 S.O2    1  UNL1       -0.0064
     25 O         144.2414  139.7589  164.2634 O.2     1  UNL1       -0.1727
     26 O         144.4540  141.1379  161.9577 O.2     1  UNL1       -0.1727
     27 N         140.6137  144.0182  162.1566 N.pl3   1  UNL1       -0.2880
     28 C         139.8134  145.0965  162.8249 C.3     1  UNL1        0.1242
     29 C         139.3956  146.3105  162.0493 C.3     1  UNL1        0.1636
     30 O         139.7782  146.4461  160.6052 O.3     1  UNL1       -0.3501
     31 C         140.5785  145.3678  159.9369 C.3     1  UNL1        0.1636
     32 C         140.9963  144.1538  160.7125 C.3     1  UNL1        0.1242
@<TRIPOS>BOND
     1    23    24    1
     2    24    25    2
     3    24    26    2
     4    24    16    1
     5    16     1    1
     6     1     2   ar
     7     2     3   ar
     8     3    27    1
     9    27    28    1
    10    28    29    1
    11    29    30    1
    12    30    31    1
    13    31    32    1
    14     3     4   ar
    15     4     5   ar
    16     5     7    1
    17     7     8    2
    18     8     9    1
    19     9    10    2
    20    10    11    1
    21    11    12    2
    22    12    13    1
    23    13    14    2
    24    14    15    1
    25     5     6   ar
    26    16    17    1
    27    17    18    1
    28    18    19    1
    29    19    20    1
    30    20    21    1
    31    21    16    1
    32     6     1   ar
    33    32    27    1
    34    15     7    1
    35    15    11    1
    36    19    22    1
@<TRIPOS>MOLECULE
*****
 32 36 0 0 0
SMALL
GASTEIGER

@<TRIPOS>ATOM
      1 C         141.3995  143.2010  163.6064 C.ar    1  UNL1        0.0832
      2 C         141.7487  142.0210  162.7487 C.ar    1  UNL1        0.0507
      3 C         142.2323  140.7503  163.3822 C.ar    1  UNL1        0.1347
      4 N         142.3668  140.6595  164.8733 N.ar    1  UNL1       -0.2122
      5 C         142.0177  141.8396  165.7311 C.ar    1  UNL1        0.1600
      6 N         141.5340  143.1103  165.0977 N.ar    1  UNL1       -0.2295
      7 C         142.1522  141.7488  167.2223 C.2     1  UNL1        0.0230
      8 C         143.3582  142.3250  167.9030 C.2     1  UNL1       -0.0005
      9 C         143.4928  142.2343  169.3942 C.2     1  UNL1        0.0010
     10 C         142.4212  141.5672  170.2047 C.2     1  UNL1        0.0153
     11 C         141.2152  140.9910  169.5240 C.2     1  UNL1        0.0669
     12 N         140.0062  140.2803  170.0562 N.2     1  UNL1       -0.2478
     13 C         139.1244  139.9318  168.8938 C.2     1  UNL1        0.0946
     14 C         139.7885  140.4271  167.6433 C.2     1  UNL1        0.0046
     15 C         141.0807  141.0818  168.0328 C.3     1  UNL1        0.0888
     16 C         140.9159  144.4717  162.9730 C.3     1  UNL1        0.1482
     17 C         139.6081  143.7628  163.1660 C.3     1  UNL1        0.0447
     18 C         138.3293  144.4176  162.7350 C.3     1  UNL1        0.0707
     19 N         138.3581  145.7812  162.1109 N.3     1  UNL1       -0.2974
     20 C         139.6658  146.4901  161.9179 C.3     1  UNL1        0.0707
     21 C         140.9447  145.8354  162.3489 C.3     1  UNL1        0.0447
     22 H         137.7795  146.3847  162.6951 H       1  UNL1        0.1232
     23 C         143.8672  145.0071  163.0269 C.3     1  UNL1        0.1764
     24 S         142.3915  144.7394  162.9999 S.O2    1  UNL1       -0.0064
     25 O         142.6145  145.0409  164.1557 O.2     1  UNL1       -0.1727
     26 O         142.4758  144.4226  161.5362 O.2     1  UNL1       -0.1727
     27 N         142.5815  139.5703  162.5245 N.pl3   1  UNL1       -0.2880
     28 C         144.0047  139.1056  162.4314 C.3     1  UNL1        0.1242
     29 C         144.3538  137.9257  161.5737 C.3     1  UNL1        0.1636
     30 O         143.2797  137.2104  160.8090 O.3     1  UNL1       -0.3501
     31 C         141.8566  137.6750  160.9020 C.3     1  UNL1        0.1636
     32 C         141.5074  138.8550  161.7598 C.3     1  UNL1        0.1242
@<TRIPOS>BOND
     1    23    24    1
     2    24    25    2
     3    24    26    2
     4    24    16    1
     5    16     1    1
     6     1     2   ar
     7     2     3   ar
     8     3    27    1
     9    27    28    1
    10    28    29    1
    11    29    30    1
    12    30    31    1
    13    31    32    1
    14     3     4   ar
    15     4     5   ar
    16     5     7    1
    17     7     8    2
    18     8     9    1
    19     9    10    2
    20    10    11    1
    21    11    12    2
    22    12    13    1
    23    13    14    2
    24    14    15    1
    25     5     6   ar
    26    16    17    1
    27    17    18    1
    28    18    19    1
    29    19    20    1
    30    20    21    1
    31    21    16    1
    32     6     1   ar
    33    32    27    1
    34    15     7    1
    35    15    11    1
    36    19    22    1
@<TRIPOS>MOLECULE
*****
 32 36 0 0 0
SMALL
GASTEIGER

@<TRIPOS>ATOM
      1 C         142.3388  140.3917  163.3138 C.ar    1  UNL1        0.0832
      2 C         141.8540  141.6177  162.5983 C.ar    1  UNL1        0.0507
      3 C         141.0195  142.6299  163.3258 C.ar    1  UNL1        0.1347
      4 N         140.6700  142.4162  164.7686 N.ar    1  UNL1       -0.2122
      5 C         141.1549  141.1902  165.4842 C.ar    1  UNL1        0.1600
      6 N         141.9893  140.1780  164.7568 N.ar    1  UNL1       -0.2295
      7 C         140.8053  140.9765  166.9272 C.2     1  UNL1        0.0230
      8 C         139.5305  140.2764  167.2943 C.2     1  UNL1       -0.0005
      9 C         139.1809  140.0627  168.7372 C.2     1  UNL1        0.0010
     10 C         140.1061  140.5490  169.8131 C.2     1  UNL1        0.0153
     11 C         141.3809  141.2491  169.4460 C.2     1  UNL1        0.0669
     12 N         142.4809  141.8344  170.2811 N.2     1  UNL1       -0.2478
     13 C         143.5103  142.4099  169.3542 C.2     1  UNL1        0.0946
     14 C         143.0466  142.1802  167.9463 C.2     1  UNL1        0.0046
     15 C         141.7305  141.4628  168.0030 C.3     1  UNL1        0.0888
     16 C         143.1732  139.3795  162.5864 C.3     1  UNL1        0.1482
     17 C         141.8023  138.9307  162.1753 C.3     1  UNL1        0.0447
     18 C         141.6413  137.7477  161.2673 C.3     1  UNL1        0.0707
     19 N         142.8511  137.0134  160.7704 N.3     1  UNL1       -0.2974
     20 C         144.2221  137.4622  161.1815 C.3     1  UNL1        0.0707
     21 C         144.3832  138.6453  162.0895 C.3     1  UNL1        0.0447
     22 H         142.8216  137.0527  159.7516 H       1  UNL1        0.1232
     23 C         145.3357  140.9801  163.9138 C.3     1  UNL1        0.1764
     24 S         144.2544  140.1798  163.2500 S.O2    1  UNL1       -0.0064
     25 O         144.3394  139.6948  164.3609 O.2     1  UNL1       -0.1727
     26 O         144.4160  140.9965  162.0023 O.2     1  UNL1       -0.1727
     27 N         140.5347  143.8558  162.6102 N.pl3   1  UNL1       -0.2880
     28 C         141.0663  144.1884  161.2476 C.3     1  UNL1        0.1242
     29 C         140.5814  145.4143  160.5320 C.3     1  UNL1        0.1636
     30 O         139.5649  146.3077  161.1792 O.3     1  UNL1       -0.3501
     31 C         139.0334  145.9751  162.5418 C.3     1  UNL1        0.1636
     32 C         139.5182  144.7492  163.2573 C.3     1  UNL1        0.1242
@<TRIPOS>BOND
     1    23    24    1
     2    24    25    2
     3    24    26    2
     4    24    16    1
     5    16     1    1
     6     1     2   ar
     7     2     3   ar
     8     3    27    1
     9    27    28    1
    10    28    29    1
    11    29    30    1
    12    30    31    1
    13    31    32    1
    14     3     4   ar
    15     4     5   ar
    16     5     7    1
    17     7     8    2
    18     8     9    1
    19     9    10    2
    20    10    11    1
    21    11    12    2
    22    12    13    1
    23    13    14    2
    24    14    15    1
    25     5     6   ar
    26    16    17    1
    27    17    18    1
    28    18    19    1
    29    19    20    1
    30    20    21    1
    31    21    16    1
    32     6     1   ar
    33    32    27    1
    34    15     7    1
    35    15    11    1
    36    19    22    1
@<TRIPOS>MOLECULE
*****
 32 36 0 0 0
SMALL
GASTEIGER

@<TRIPOS>ATOM
      1 C         140.2678  142.5661  163.7822 C.ar    1  UNL1        0.0832
      2 C         140.9889  141.5724  162.9205 C.ar    1  UNL1        0.0507
      3 C         141.5683  140.3309  163.5316 C.ar    1  UNL1        0.1347
      4 N         141.4265  140.0833  165.0041 N.ar    1  UNL1       -0.2122
      5 C         140.7053  141.0771  165.8658 C.ar    1  UNL1        0.1600
      6 N         140.1260  142.3185  165.2548 N.ar    1  UNL1       -0.2295
      7 C         140.5635  140.8295  167.3384 C.2     1  UNL1        0.0230
      8 C         139.3655  140.0954  167.8636 C.2     1  UNL1       -0.0005
      9 C         139.2237  139.8477  169.3361 C.2     1  UNL1        0.0010
     10 C         140.2799  140.3342  170.2836 C.2     1  UNL1        0.0153
     11 C         141.4779  141.0683  169.7585 C.2     1  UNL1        0.0669
     12 N         142.6719  141.6620  170.4455 N.2     1  UNL1       -0.2478
     13 C         143.5516  142.2766  169.3975 C.2     1  UNL1        0.0946
     14 C         142.9014  142.0627  168.0628 C.2     1  UNL1        0.0046
     15 C         141.6197  141.3160  168.2859 C.3     1  UNL1        0.0888
     16 C         139.6885  143.8075  163.1712 C.3     1  UNL1        0.1482
     17 C         141.1036  144.2574  163.3829 C.3     1  UNL1        0.0447
     18 C         141.5178  145.6428  162.9838 C.3     1  UNL1        0.0707
     19 N         140.5169  146.5781  162.3730 N.3     1  UNL1       -0.2974
     20 C         139.1017  146.1282  162.1613 C.3     1  UNL1        0.0707
     21 C         138.6875  144.7429  162.5604 C.3     1  UNL1        0.0447
     22 H         140.8816  146.8431  161.4580 H       1  UNL1        0.1232
     23 C         137.2605  142.0454  163.1720 C.3     1  UNL1        0.1764
     24 S         138.4745  142.9265  163.1716 S.O2    1  UNL1       -0.0064
     25 O         138.6320  142.2085  162.2041 O.2     1  UNL1       -0.1727
     26 O         137.9713  143.6202  164.4027 O.2     1  UNL1       -0.1727
     27 N         142.2894  139.3372  162.6700 N.pl3   1  UNL1       -0.2880
     28 C         141.5513  138.6097  161.5856 C.3     1  UNL1        0.1242
     29 C         142.2724  137.6159  160.7240 C.3     1  UNL1        0.1636
     30 O         143.7318  137.3497  160.9468 O.3     1  UNL1       -0.3501
     31 C         144.4698  138.0772  162.0311 C.3     1  UNL1        0.1636
     32 C         143.7487  139.0710  162.8927 C.3     1  UNL1        0.1242
@<TRIPOS>BOND
     1    23    24    1
     2    24    25    2
     3    24    26    2
     4    24    16    1
     5    16     1    1
     6     1     2   ar
     7     2     3   ar
     8     3    27    1
     9    27    28    1
    10    28    29    1
    11    29    30    1
    12    30    31    1
    13    31    32    1
    14     3     4   ar
    15     4     5   ar
    16     5     7    1
    17     7     8    2
    18     8     9    1
    19     9    10    2
    20    10    11    1
    21    11    12    2
    22    12    13    1
    23    13    14    2
    24    14    15    1
    25     5     6   ar
    26    16    17    1
    27    17    18    1
    28    18    19    1
    29    19    20    1
    30    20    21    1
    31    21    16    1
    32     6     1   ar
    33    32    27    1
    34    15     7    1
    35    15    11    1
    36    19    22    1
@<TRIPOS>MOLECULE
*****
 32 36 0 0 0
SMALL
GASTEIGER

@<TRIPOS>ATOM
      1 C         141.4758  140.1154  163.6000 C.ar    1  UNL1        0.0832
      2 C         140.9665  141.3658  162.9464 C.ar    1  UNL1        0.0507
      3 C         140.3197  142.4355  163.7756 C.ar    1  UNL1        0.1347
      4 N         140.1822  142.2548  165.2582 N.ar    1  UNL1       -0.2122
      5 C         140.6916  141.0044  165.9119 C.ar    1  UNL1        0.1600
      6 N         141.3383  139.9347  165.0828 N.ar    1  UNL1       -0.2295
      7 C         140.5541  140.8237  167.3946 C.2     1  UNL1        0.0230
      8 C         139.3524  140.1238  167.9566 C.2     1  UNL1       -0.0005
      9 C         139.2149  139.9431  169.4392 C.2     1  UNL1        0.0010
     10 C         140.2791  140.4624  170.3600 C.2     1  UNL1        0.0153
     11 C         141.4808  141.1624  169.7980 C.2     1  UNL1        0.0669
     12 N         142.6825  141.7760  170.4532 N.2     1  UNL1       -0.2478
     13 C         143.5627  142.3360  169.3754 C.2     1  UNL1        0.0946
     14 C         142.9050  142.0684  168.0541 C.2     1  UNL1        0.0046
     15 C         141.6183  141.3430  168.3153 C.3     1  UNL1        0.0888
     16 C         142.1226  139.0458  162.7709 C.3     1  UNL1        0.1482
     17 C         143.1983  140.0904  162.7335 C.3     1  UNL1        0.0447
     18 C         144.4692  139.8316  161.9799 C.3     1  UNL1        0.0707
     19 N         144.6644  138.5281  161.2639 N.3     1  UNL1       -0.2974
     20 C         143.5886  137.4835  161.3013 C.3     1  UNL1        0.0707
     21 C         142.3177  137.7422  162.0548 C.3     1  UNL1        0.0447
     22 H         145.5039  138.1004  161.6545 H       1  UNL1        0.1232
     23 C         139.5218  137.6994  163.4215 C.3     1  UNL1        0.1764
     24 S         140.8222  138.3726  163.0962 S.O2    1  UNL1       -0.0064
     25 O         140.0154  138.9288  162.3778 O.2     1  UNL1       -0.1727
     26 O         141.5243  137.4970  164.0914 O.2     1  UNL1       -0.1727
     27 N         139.8104  143.6858  163.1220 N.pl3   1  UNL1       -0.2880
     28 C         140.7774  144.6909  162.5698 C.3     1  UNL1        0.1242
     29 C         140.2681  145.9412  161.9162 C.3     1  UNL1        0.1636
     30 O         138.7918  146.1865  161.8148 O.3     1  UNL1       -0.3501
     31 C         137.8248  145.1815  162.3669 C.3     1  UNL1        0.1636
     32 C         138.3341  143.9312  163.0205 C.3     1  UNL1        0.1242
@<TRIPOS>BOND
     1    23    24    1
     2    24    25    2
     3    24    26    2
     4    24    16    1
     5    16     1    1
     6     1     2   ar
     7     2     3   ar
     8     3    27    1
     9    27    28    1
    10    28    29    1
    11    29    30    1
    12    30    31    1
    13    31    32    1
    14     3     4   ar
    15     4     5   ar
    16     5     7    1
    17     7     8    2
    18     8     9    1
    19     9    10    2
    20    10    11    1
    21    11    12    2
    22    12    13    1
    23    13    14    2
    24    14    15    1
    25     5     6   ar
    26    16    17    1
    27    17    18    1
    28    18    19    1
    29    19    20    1
    30    20    21    1
    31    21    16    1
    32     6     1   ar
    33    32    27    1
    34    15     7    1
    35    15    11    1
    36    19    22    1
@<TRIPOS>MOLECULE
*****
 32 36 0 0 0
SMALL
GASTEIGER

@<TRIPOS>ATOM
      1 C         140.9651  142.8821  163.4140 C.ar    1  UNL1        0.0832
      2 C         141.4949  141.8117  162.5065 C.ar    1  UNL1        0.0507
      3 C         141.7830  140.4432  163.0492 C.ar    1  UNL1        0.1347
      4 N         141.5413  140.1453  164.4992 N.ar    1  UNL1       -0.2122
      5 C         141.0115  141.2158  165.4068 C.ar    1  UNL1        0.1600
      6 N         140.7234  142.5842  164.8641 N.ar    1  UNL1       -0.2295
      7 C         140.7698  140.9178  166.8569 C.2     1  UNL1        0.0230
      8 C         139.5433  140.1609  167.2727 C.2     1  UNL1       -0.0005
      9 C         139.3016  139.8629  168.7227 C.2     1  UNL1        0.0010
     10 C         140.2864  140.3218  169.7571 C.2     1  UNL1        0.0153
     11 C         141.5129  141.0786  169.3412 C.2     1  UNL1        0.0669
     12 N         142.6523  141.6540  170.1289 N.2     1  UNL1       -0.2478
     13 C         143.5983  142.3077  169.1656 C.2     1  UNL1        0.0946
     14 C         143.0434  142.1362  167.7826 C.2     1  UNL1        0.0046
     15 C         141.7546  141.3766  167.8911 C.3     1  UNL1        0.0888
     16 C         140.6770  144.2505  162.8714 C.3     1  UNL1        0.1482
     17 C         139.2849  143.6951  162.9300 C.3     1  UNL1        0.0447
     18 C         138.1229  144.5360  162.4910 C.3     1  UNL1        0.0707
     19 N         138.3530  145.9322  161.9935 N.3     1  UNL1       -0.2974
     20 C         139.7452  146.4876  161.9349 C.3     1  UNL1        0.0707
     21 C         140.9072  145.6468  162.3738 C.3     1  UNL1        0.0447
     22 H         137.8137  146.5526  162.5973 H       1  UNL1        0.1232
     23 C         143.6614  144.4109  163.1311 C.3     1  UNL1        0.1764
     24 S         142.1692  144.3307  163.0012 S.O2    1  UNL1       -0.0064
     25 O         142.3536  144.4671  164.1944 O.2     1  UNL1       -0.1727
     26 O         142.3069  144.1771  161.5155 O.2     1  UNL1       -0.1727
     27 N         142.3128  139.3728  162.1418 N.pl3   1  UNL1       -0.2880
     28 C         143.6333  138.7252  162.4368 C.3     1  UNL1        0.1242
     29 C         144.1630  137.6548  161.5293 C.3     1  UNL1        0.1636
     30 O         143.3723  137.2321  160.3268 O.3     1  UNL1       -0.3501
     31 C         142.0520  137.8796  160.0317 C.3     1  UNL1        0.1636
     32 C         141.5222  138.9501  160.9392 C.3     1  UNL1        0.1242
@<TRIPOS>BOND
     1    23    24    1
     2    24    25    2
     3    24    26    2
     4    24    16    1
     5    16     1    1
     6     1     2   ar
     7     2     3   ar
     8     3    27    1
     9    27    28    1
    10    28    29    1
    11    29    30    1
    12    30    31    1
    13    31    32    1
    14     3     4   ar
    15     4     5   ar
    16     5     7    1
    17     7     8    2
    18     8     9    1
    19     9    10    2
    20    10    11    1
    21    11    12    2
    22    12    13    1
    23    13    14    2
    24    14    15    1
    25     5     6   ar
    26    16    17    1
    27    17    18    1
    28    18    19    1
    29    19    20    1
    30    20    21    1
    31    21    16    1
    32     6     1   ar
    33    32    27    1
    34    15     7    1
    35    15    11    1
    36    19    22    1
@<TRIPOS>MOLECULE
*****
 32 36 0 0 0
SMALL
GASTEIGER

@<TRIPOS>ATOM
      1 C         139.9155  140.3408  165.7290 C.ar    1  UNL1        0.0832
      2 C         140.5990  140.7688  166.9937 C.ar    1  UNL1        0.0507
      3 C         141.2219  142.1303  167.0858 C.ar    1  UNL1        0.1347
      4 N         141.1614  143.0636  165.9132 N.ar    1  UNL1       -0.2122
      5 C         140.4779  142.6355  164.6483 C.ar    1  UNL1        0.1600
      6 N         139.8550  141.2741  164.5562 N.ar    1  UNL1       -0.2295
      7 C         140.4174  143.5689  163.4756 C.2     1  UNL1        0.0230
      8 C         139.3175  144.5845  163.3814 C.2     1  UNL1       -0.0005
      9 C         139.2570  145.5178  162.2088 C.2     1  UNL1        0.0010
     10 C         140.2964  145.4357  161.1303 C.2     1  UNL1        0.0153
     11 C         141.3963  144.4201  161.2246 C.2     1  UNL1        0.0669
     12 N         142.5522  144.1058  160.3218 N.2     1  UNL1       -0.2478
     13 C         143.3271  142.9782  160.9365 C.2     1  UNL1        0.0946
     14 C         142.6501  142.5956  162.2192 C.2     1  UNL1        0.0046
     15 C         141.4568  143.4867  162.3973 C.3     1  UNL1        0.0888
     16 C         139.2926  138.9794  165.6369 C.3     1  UNL1        0.1482
     17 C         138.5380  139.5323  166.8094 C.3     1  UNL1        0.0447
     18 C         137.4977  138.6959  167.4937 C.3     1  UNL1        0.0707
     19 N         137.2120  137.3068  167.0055 N.3     1  UNL1       -0.2974
     20 C         137.9665  136.7539  165.8330 C.3     1  UNL1        0.0707
     21 C         139.0068  137.5901  165.1486 C.3     1  UNL1        0.0447
     22 H         136.2227  137.2791  166.7586 H       1  UNL1        0.1232
     23 C         141.2344  138.8191  163.3557 C.3     1  UNL1        0.1764
     24 S         140.2634  138.8992  164.4963 S.O2    1  UNL1       -0.0064
     25 O         141.3440  138.7758  165.0382 O.2     1  UNL1       -0.1727
     26 O         139.1309  139.0363  163.5224 O.2     1  UNL1       -0.1727
     27 N         141.9054  142.5583  168.3506 N.pl3   1  UNL1       -0.2880
     28 C         143.3533  142.2325  168.5679 C.3     1  UNL1        0.1242
     29 C         144.0368  142.6605  169.8326 C.3     1  UNL1        0.1636
     30 O         143.2722  143.4144  170.8801 O.3     1  UNL1       -0.3501
     31 C         141.8243  143.7402  170.6628 C.3     1  UNL1        0.1636
     32 C         141.1408  143.3122  169.3980 C.3     1  UNL1        0.1242
@<TRIPOS>BOND
     1    23    24    1
     2    24    25    2
     3    24    26    2
     4    24    16    1
     5    16     1    1
     6     1     2   ar
     7     2     3   ar
     8     3    27    1
     9    27    28    1
    10    28    29    1
    11    29    30    1
    12    30    31    1
    13    31    32    1
    14     3     4   ar
    15     4     5   ar
    16     5     7    1
    17     7     8    2
    18     8     9    1
    19     9    10    2
    20    10    11    1
    21    11    12    2
    22    12    13    1
    23    13    14    2
    24    14    15    1
    25     5     6   ar
    26    16    17    1
    27    17    18    1
    28    18    19    1
    29    19    20    1
    30    20    21    1
    31    21    16    1
    32     6     1   ar
    33    32    27    1
    34    15     7    1
    35    15    11    1
    36    19    22    1
