@<TRIPOS>MOLECULE
*****
 27 29 0 0 0
SMALL
GASTEIGER

@<TRIPOS>ATOM
      1 C         139.9856  141.6986  165.2981 C.3     1  UNL1        0.4092
      2 N         139.6631  140.3768  164.6666 N.ar    1  UNL1       -0.1494
      3 C         139.9016  140.1680  163.2005 C.ar    1  UNL1        0.2699
      4 C         139.5791  138.8462  162.5689 C.ar    1  UNL1        0.0787
      5 C         139.0180  137.7333  163.4035 C.ar    1  UNL1        0.0136
      6 C         138.7794  137.9421  164.8695 C.ar    1  UNL1        0.0787
      7 C         139.1019  139.2639  165.5011 C.ar    1  UNL1        0.2699
      8 C         140.4628  141.2809  162.3659 C.1     1  UNL1        0.0075
      9 C         141.0239  142.3939  161.5314 C.1     1  UNL1       -0.0335
     10 C         141.5850  143.5069  160.6968 C.3     1  UNL1        0.2816
     11 O         142.8830  144.1524  161.0823 O.3     1  UNL1       -0.4612
     12 C         143.6965  143.5868  162.2084 C.ar    1  UNL1        0.1400
     13 C         143.5036  144.1001  163.6046 C.ar    1  UNL1        0.0369
     14 C         144.3171  143.5344  164.7307 C.ar    1  UNL1        0.0031
     15 C         145.3236  142.4555  164.4607 C.ar    1  UNL1        0.0002
     16 C         145.5166  141.9422  163.0645 C.ar    1  UNL1        0.0031
     17 C         144.7030  142.5078  161.9383 C.ar    1  UNL1        0.0369
     18 C         138.8633  139.4727  166.9672 C.1     1  UNL1        0.0075
     19 C         138.6247  139.6815  168.4333 C.1     1  UNL1       -0.0335
     20 C         138.3861  139.8903  169.8995 C.3     1  UNL1        0.2816
     21 O         139.5488  139.9898  170.8419 O.3     1  UNL1       -0.4612
     22 C         140.7320  140.8403  170.4860 C.ar    1  UNL1        0.1400
     23 C         142.0781  140.2083  170.2896 C.ar    1  UNL1        0.0369
     24 C         143.2612  141.0588  169.9337 C.ar    1  UNL1        0.0031
     25 C         143.0984  142.5414  169.7743 C.ar    1  UNL1        0.0002
     26 C         141.7523  143.1734  169.9708 C.ar    1  UNL1        0.0031
     27 C         140.5691  142.3228  170.3266 C.ar    1  UNL1        0.0369
@<TRIPOS>UNITY_ATOM_ATTR
2 1
charge 1
@<TRIPOS>BOND
     1     1     2    1
     2     2     3   ar
     3     3     8    1
     4     8     9    3
     5     9    10    1
     6    10    11    1
     7    11    12    1
     8    12    13   ar
     9    13    14   ar
    10    14    15   ar
    11    15    16   ar
    12    16    17   ar
    13     3     4   ar
    14     4     5   ar
    15     5     6   ar
    16     6     7   ar
    17     7    18    1
    18    18    19    3
    19    19    20    1
    20    20    21    1
    21    21    22    1
    22    22    23   ar
    23    23    24   ar
    24    24    25   ar
    25    25    26   ar
    26    26    27   ar
    27     7     2   ar
    28    27    22   ar
    29    17    12   ar
@<TRIPOS>MOLECULE
*****
 27 29 0 0 0
SMALL
GASTEIGER

@<TRIPOS>ATOM
      1 C         140.0152  141.6937  165.2709 C.3     1  UNL1        0.4092
      2 N         139.7035  140.3656  164.6473 N.ar    1  UNL1       -0.1494
      3 C         139.1414  139.2565  165.4862 C.ar    1  UNL1        0.2699
      4 C         138.8297  137.9284  164.8626 C.ar    1  UNL1        0.0787
      5 C         139.0801  137.7093  163.4000 C.ar    1  UNL1        0.0136
      6 C         139.6422  138.8184  162.5610 C.ar    1  UNL1        0.0787
      7 C         139.9539  140.1466  163.1846 C.ar    1  UNL1        0.2699
      8 C         138.8910  139.4755  166.9489 C.1     1  UNL1        0.0075
      9 C         138.6406  139.6944  168.4115 C.1     1  UNL1       -0.0335
     10 C         138.3902  139.9134  169.8742 C.3     1  UNL1        0.2816
     11 O         139.5447  140.0021  170.8278 O.3     1  UNL1       -0.4612
     12 C         140.7354  140.8483  170.4871 C.ar    1  UNL1        0.1400
     13 C         140.5823  142.3330  170.3374 C.ar    1  UNL1        0.0369
     14 C         141.7731  143.1791  169.9967 C.ar    1  UNL1        0.0031
     15 C         143.1169  142.5407  169.8057 C.ar    1  UNL1        0.0002
     16 C         143.2700  141.0561  169.9554 C.ar    1  UNL1        0.0031
     17 C         142.0793  140.2099  170.2961 C.ar    1  UNL1        0.0369
     18 C         140.5160  141.2557  162.3456 C.1     1  UNL1        0.0075
     19 C         141.0781  142.3648  161.5065 C.1     1  UNL1       -0.0335
     20 C         141.6402  143.4739  160.6675 C.3     1  UNL1        0.2816
     21 O         142.9347  144.1251  161.0548 O.3     1  UNL1       -0.4612
     22 C         143.7223  143.5961  162.2166 C.ar    1  UNL1        0.1400
     23 C         143.5261  144.1804  163.5841 C.ar    1  UNL1        0.0369
     24 C         144.3136  143.6513  164.7459 C.ar    1  UNL1        0.0031
     25 C         145.2976  142.5378  164.5402 C.ar    1  UNL1        0.0002
     26 C         145.4938  141.9535  163.1727 C.ar    1  UNL1        0.0031
     27 C         144.7062  142.4827  162.0109 C.ar    1  UNL1        0.0369
@<TRIPOS>UNITY_ATOM_ATTR
2 1
charge 1
@<TRIPOS>BOND
     1     1     2    1
     2     2     3   ar
     3     3     8    1
     4     8     9    3
     5     9    10    1
     6    10    11    1
     7    11    12    1
     8    12    13   ar
     9    13    14   ar
    10    14    15   ar
    11    15    16   ar
    12    16    17   ar
    13     3     4   ar
    14     4     5   ar
    15     5     6   ar
    16     6     7   ar
    17     7    18    1
    18    18    19    3
    19    19    20    1
    20    20    21    1
    21    21    22    1
    22    22    23   ar
    23    23    24   ar
    24    24    25   ar
    25    25    26   ar
    26    26    27   ar
    27     7     2   ar
    28    27    22   ar
    29    17    12   ar
@<TRIPOS>MOLECULE
*****
 27 29 0 0 0
SMALL
GASTEIGER

@<TRIPOS>ATOM
      1 C         140.6708  140.9934  163.8606 C.3     1  UNL1        0.4092
      2 N         140.0587  139.9952  162.9232 N.ar    1  UNL1       -0.1494
      3 C         140.4372  139.9992  161.4717 C.ar    1  UNL1        0.2699
      4 C         139.8250  139.0010  160.5343 C.ar    1  UNL1        0.0787
      5 C         138.8344  137.9988  161.0482 C.ar    1  UNL1        0.0136
      6 C         138.4559  137.9948  162.4996 C.ar    1  UNL1        0.0787
      7 C         139.0680  138.9930  163.4371 C.ar    1  UNL1        0.2699
      8 C         141.4279  141.0014  160.9577 C.1     1  UNL1        0.0075
      9 C         142.4185  142.0036  160.4437 C.1     1  UNL1       -0.0335
     10 C         143.4092  143.0058  159.9297 C.3     1  UNL1        0.2816
     11 O         144.6425  143.3170  160.7247 O.3     1  UNL1       -0.4612
     12 C         144.5701  143.3969  162.2208 C.ar    1  UNL1        0.1400
     13 C         143.9664  144.6020  162.8792 C.ar    1  UNL1        0.0369
     14 C         143.8940  144.6818  164.3753 C.ar    1  UNL1        0.0031
     15 C         144.4251  143.5566  165.2131 C.ar    1  UNL1        0.0002
     16 C         145.0288  142.3516  164.5547 C.ar    1  UNL1        0.0031
     17 C         145.1012  142.2717  163.0586 C.ar    1  UNL1        0.0369
     18 C         138.6895  138.9890  164.8886 C.1     1  UNL1        0.0075
     19 C         138.3110  138.9850  166.3400 C.1     1  UNL1       -0.0335
     20 C         137.9324  138.9809  167.7915 C.3     1  UNL1        0.2816
     21 O         138.7760  139.7186  168.7886 O.3     1  UNL1       -0.4612
     22 C         140.0838  140.3194  168.3660 C.ar    1  UNL1        0.1400
     23 C         140.1140  141.6753  167.7252 C.ar    1  UNL1        0.0369
     24 C         141.4217  142.2762  167.3025 C.ar    1  UNL1        0.0031
     25 C         142.6994  141.5211  167.5207 C.ar    1  UNL1        0.0002
     26 C         142.6692  140.1652  168.1615 C.ar    1  UNL1        0.0031
     27 C         141.3614  139.5644  168.5841 C.ar    1  UNL1        0.0369
@<TRIPOS>UNITY_ATOM_ATTR
2 1
charge 1
@<TRIPOS>BOND
     1     1     2    1
     2     2     3   ar
     3     3     8    1
     4     8     9    3
     5     9    10    1
     6    10    11    1
     7    11    12    1
     8    12    13   ar
     9    13    14   ar
    10    14    15   ar
    11    15    16   ar
    12    16    17   ar
    13     3     4   ar
    14     4     5   ar
    15     5     6   ar
    16     6     7   ar
    17     7    18    1
    18    18    19    3
    19    19    20    1
    20    20    21    1
    21    21    22    1
    22    22    23   ar
    23    23    24   ar
    24    24    25   ar
    25    25    26   ar
    26    26    27   ar
    27     7     2   ar
    28    27    22   ar
    29    17    12   ar
@<TRIPOS>MOLECULE
*****
 27 29 0 0 0
SMALL
GASTEIGER

@<TRIPOS>ATOM
      1 C         141.6077  141.0205  165.9111 C.3     1  UNL1        0.4092
      2 N         140.9019  139.9208  165.1746 N.ar    1  UNL1       -0.1494
      3 C         141.3227  139.5616  163.7804 C.ar    1  UNL1        0.2699
      4 C         140.6169  138.4618  163.0438 C.ar    1  UNL1        0.0787
      5 C         139.4904  137.7214  163.7015 C.ar    1  UNL1        0.0136
      6 C         139.0696  138.0807  165.0957 C.ar    1  UNL1        0.0787
      7 C         139.7754  139.1804  165.8322 C.ar    1  UNL1        0.2699
      8 C         142.4493  140.3020  163.1227 C.1     1  UNL1        0.0075
      9 C         143.5759  141.0424  162.4649 C.1     1  UNL1       -0.0335
     10 C         144.7025  141.7829  161.8072 C.3     1  UNL1        0.2816
     11 O         144.5676  143.2479  161.5149 O.3     1  UNL1       -0.4612
     12 C         143.3447  143.9924  161.9623 C.ar    1  UNL1        0.1400
     13 C         142.1820  144.1549  161.0285 C.ar    1  UNL1        0.0369
     14 C         140.9591  144.8994  161.4759 C.ar    1  UNL1        0.0031
     15 C         140.8988  145.4814  162.8570 C.ar    1  UNL1        0.0002
     16 C         142.0614  145.3190  163.7908 C.ar    1  UNL1        0.0031
     17 C         143.2844  144.5744  163.3434 C.ar    1  UNL1        0.0369
     18 C         139.3545  139.5397  167.2265 C.1     1  UNL1        0.0075
     19 C         138.9337  139.8989  168.6207 C.1     1  UNL1       -0.0335
     20 C         138.5129  140.2582  170.0149 C.3     1  UNL1        0.2816
     21 O         139.5493  140.5423  171.0614 O.3     1  UNL1       -0.4612
     22 C         140.8558  141.1683  170.6727 C.ar    1  UNL1        0.1400
     23 C         142.0676  140.3086  170.4668 C.ar    1  UNL1        0.0369
     24 C         143.3740  140.9346  170.0780 C.ar    1  UNL1        0.0031
     25 C         143.4687  142.4204  169.8950 C.ar    1  UNL1        0.0002
     26 C         142.2570  143.2802  170.1009 C.ar    1  UNL1        0.0031
     27 C         140.9504  142.6541  170.4898 C.ar    1  UNL1        0.0369
@<TRIPOS>UNITY_ATOM_ATTR
2 1
charge 1
@<TRIPOS>BOND
     1     1     2    1
     2     2     3   ar
     3     3     8    1
     4     8     9    3
     5     9    10    1
     6    10    11    1
     7    11    12    1
     8    12    13   ar
     9    13    14   ar
    10    14    15   ar
    11    15    16   ar
    12    16    17   ar
    13     3     4   ar
    14     4     5   ar
    15     5     6   ar
    16     6     7   ar
    17     7    18    1
    18    18    19    3
    19    19    20    1
    20    20    21    1
    21    21    22    1
    22    22    23   ar
    23    23    24   ar
    24    24    25   ar
    25    25    26   ar
    26    26    27   ar
    27     7     2   ar
    28    27    22   ar
    29    17    12   ar
@<TRIPOS>MOLECULE
*****
 27 29 0 0 0
SMALL
GASTEIGER

@<TRIPOS>ATOM
      1 C         141.5376  140.7300  165.7580 C.3     1  UNL1        0.4092
      2 N         140.7088  139.7054  165.0416 N.ar    1  UNL1       -0.1494
      3 C         139.5424  139.0662  165.7349 C.ar    1  UNL1        0.2699
      4 C         138.7136  138.0416  165.0185 C.ar    1  UNL1        0.0787
      5 C         139.0512  137.6562  163.6087 C.ar    1  UNL1        0.0136
      6 C         140.2176  138.2955  162.9154 C.ar    1  UNL1        0.0787
      7 C         141.0464  139.3201  163.6318 C.ar    1  UNL1        0.2699
      8 C         139.2047  139.4515  167.1448 C.1     1  UNL1        0.0075
      9 C         138.8670  139.8369  168.5545 C.1     1  UNL1       -0.0335
     10 C         138.5293  140.2222  169.9643 C.3     1  UNL1        0.2816
     11 O         139.6210  140.3787  170.9810 O.3     1  UNL1       -0.4612
     12 C         140.8941  141.0810  170.6124 C.ar    1  UNL1        0.1400
     13 C         142.1457  140.2892  170.3744 C.ar    1  UNL1        0.0369
     14 C         143.4188  140.9915  170.0058 C.ar    1  UNL1        0.0031
     15 C         143.4404  142.4856  169.8751 C.ar    1  UNL1        0.0002
     16 C         142.1888  143.2775  170.1130 C.ar    1  UNL1        0.0031
     17 C         140.9157  142.5752  170.4816 C.ar    1  UNL1        0.0369
     18 C         142.2129  139.9593  162.9384 C.1     1  UNL1        0.0075
     19 C         143.3794  140.5985  162.2451 C.1     1  UNL1       -0.0335
     20 C         144.5459  141.2378  161.5517 C.3     1  UNL1        0.2816
     21 O         144.5102  142.6995  161.2168 O.3     1  UNL1       -0.4612
     22 C         143.5973  143.6197  161.9715 C.ar    1  UNL1        0.1400
     23 C         144.0464  144.2239  163.2689 C.ar    1  UNL1        0.0369
     24 C         143.1335  145.1442  164.0235 C.ar    1  UNL1        0.0031
     25 C         141.7712  145.4603  163.4808 C.ar    1  UNL1        0.0002
     26 C         141.3221  144.8562  162.1834 C.ar    1  UNL1        0.0031
     27 C         142.2351  143.9358  161.4287 C.ar    1  UNL1        0.0369
@<TRIPOS>UNITY_ATOM_ATTR
2 1
charge 1
@<TRIPOS>BOND
     1     1     2    1
     2     2     3   ar
     3     3     8    1
     4     8     9    3
     5     9    10    1
     6    10    11    1
     7    11    12    1
     8    12    13   ar
     9    13    14   ar
    10    14    15   ar
    11    15    16   ar
    12    16    17   ar
    13     3     4   ar
    14     4     5   ar
    15     5     6   ar
    16     6     7   ar
    17     7    18    1
    18    18    19    3
    19    19    20    1
    20    20    21    1
    21    21    22    1
    22    22    23   ar
    23    23    24   ar
    24    24    25   ar
    25    25    26   ar
    26    26    27   ar
    27     7     2   ar
    28    27    22   ar
    29    17    12   ar
@<TRIPOS>MOLECULE
*****
 27 29 0 0 0
SMALL
GASTEIGER

@<TRIPOS>ATOM
      1 C         142.1266  141.6981  163.7347 C.3     1  UNL1        0.4092
      2 N         142.7275  140.9965  162.5530 N.ar    1  UNL1       -0.1494
      3 C         143.4677  139.7059  162.7437 C.ar    1  UNL1        0.2699
      4 C         144.0686  139.0042  161.5619 C.ar    1  UNL1        0.0787
      5 C         143.9294  139.5931  160.1895 C.ar    1  UNL1        0.0136
      6 C         143.1892  140.8838  159.9988 C.ar    1  UNL1        0.0787
      7 C         142.5883  141.5854  161.1805 C.ar    1  UNL1        0.2699
      8 C         143.6070  139.1169  164.1162 C.1     1  UNL1        0.0075
      9 C         143.7462  138.5279  165.4887 C.1     1  UNL1       -0.0335
     10 C         143.8855  137.9388  166.8612 C.3     1  UNL1        0.2816
     11 O         143.2310  138.6068  168.0339 O.3     1  UNL1       -0.4612
     12 C         142.3803  139.8244  167.8249 C.ar    1  UNL1        0.1400
     13 C         140.9902  139.6835  167.2791 C.ar    1  UNL1        0.0369
     14 C         140.1396  140.9012  167.0700 C.ar    1  UNL1        0.0031
     15 C         140.6790  142.2597  167.4067 C.ar    1  UNL1        0.0002
     16 C         142.0690  142.4007  167.9525 C.ar    1  UNL1        0.0031
     17 C         142.9197  141.1830  168.1616 C.ar    1  UNL1        0.0369
     18 C         141.8480  142.8761  160.9897 C.1     1  UNL1        0.0075
     19 C         141.1078  144.1667  160.7990 C.1     1  UNL1       -0.0335
     20 C         140.3676  145.4573  160.6082 C.3     1  UNL1        0.2816
     21 O         139.2181  145.8027  161.5079 O.3     1  UNL1       -0.4612
     22 C         138.7988  144.8504  162.5882 C.ar    1  UNL1        0.1400
     23 C         137.9686  143.6484  162.2478 C.ar    1  UNL1        0.0369
     24 C         137.5493  142.6960  163.3281 C.ar    1  UNL1        0.0031
     25 C         137.9603  142.9456  164.7490 C.ar    1  UNL1        0.0002
     26 C         138.7905  144.1476  165.0895 C.ar    1  UNL1        0.0031
     27 C         139.2098  145.1000  164.0090 C.ar    1  UNL1        0.0369
@<TRIPOS>UNITY_ATOM_ATTR
2 1
charge 1
@<TRIPOS>BOND
     1     1     2    1
     2     2     3   ar
     3     3     8    1
     4     8     9    3
     5     9    10    1
     6    10    11    1
     7    11    12    1
     8    12    13   ar
     9    13    14   ar
    10    14    15   ar
    11    15    16   ar
    12    16    17   ar
    13     3     4   ar
    14     4     5   ar
    15     5     6   ar
    16     6     7   ar
    17     7    18    1
    18    18    19    3
    19    19    20    1
    20    20    21    1
    21    21    22    1
    22    22    23   ar
    23    23    24   ar
    24    24    25   ar
    25    25    26   ar
    26    26    27   ar
    27     7     2   ar
    28    27    22   ar
    29    17    12   ar
@<TRIPOS>MOLECULE
*****
 27 29 0 0 0
SMALL
GASTEIGER

@<TRIPOS>ATOM
      1 C         142.0849  141.6648  163.8024 C.3     1  UNL1        0.4092
      2 N         142.7208  140.9722  162.6336 N.ar    1  UNL1       -0.1494
      3 C         142.6264  141.5742  161.2630 C.ar    1  UNL1        0.2699
      4 C         143.2623  140.8816  160.0943 C.ar    1  UNL1        0.0787
      5 C         143.9925  139.5870  160.2961 C.ar    1  UNL1        0.0136
      6 C         144.0869  138.9850  161.6667 C.ar    1  UNL1        0.0787
      7 C         143.4510  139.6776  162.8355 C.ar    1  UNL1        0.2699
      8 C         141.8962  142.8688  161.0611 C.1     1  UNL1        0.0075
      9 C         141.1659  144.1634  160.8592 C.1     1  UNL1       -0.0335
     10 C         140.4356  145.4580  160.6573 C.3     1  UNL1        0.2816
     11 O         139.2523  145.7934  161.5158 O.3     1  UNL1       -0.4612
     12 C         138.8426  144.8680  162.6229 C.ar    1  UNL1        0.1400
     13 C         137.9349  143.7092  162.3346 C.ar    1  UNL1        0.0369
     14 C         137.5252  142.7838  163.4417 C.ar    1  UNL1        0.0031
     15 C         138.0232  143.0172  164.8372 C.ar    1  UNL1        0.0002
     16 C         138.9309  144.1759  165.1256 C.ar    1  UNL1        0.0031
     17 C         139.3407  145.1014  164.0185 C.ar    1  UNL1        0.0369
     18 C         143.5454  139.0755  164.2062 C.1     1  UNL1        0.0075
     19 C         143.6397  138.4735  165.5768 C.1     1  UNL1       -0.0335
     20 C         143.7341  137.8714  166.9475 C.3     1  UNL1        0.2816
     21 O         143.3084  138.6658  168.1465 O.3     1  UNL1       -0.4612
     22 C         142.4372  139.8747  167.9745 C.ar    1  UNL1        0.1400
     23 C         142.8703  141.1972  168.5344 C.ar    1  UNL1        0.0369
     24 C         141.9992  142.4060  168.3623 C.ar    1  UNL1        0.0031
     25 C         140.6947  142.2925  167.6304 C.ar    1  UNL1        0.0002
     26 C         140.2616  140.9700  167.0705 C.ar    1  UNL1        0.0031
     27 C         141.1328  139.7611  167.2426 C.ar    1  UNL1        0.0369
@<TRIPOS>UNITY_ATOM_ATTR
2 1
charge 1
@<TRIPOS>BOND
     1     1     2    1
     2     2     3   ar
     3     3     8    1
     4     8     9    3
     5     9    10    1
     6    10    11    1
     7    11    12    1
     8    12    13   ar
     9    13    14   ar
    10    14    15   ar
    11    15    16   ar
    12    16    17   ar
    13     3     4   ar
    14     4     5   ar
    15     5     6   ar
    16     6     7   ar
    17     7    18    1
    18    18    19    3
    19    19    20    1
    20    20    21    1
    21    21    22    1
    22    22    23   ar
    23    23    24   ar
    24    24    25   ar
    25    25    26   ar
    26    26    27   ar
    27     7     2   ar
    28    27    22   ar
    29    17    12   ar
@<TRIPOS>MOLECULE
*****
 27 29 0 0 0
SMALL
GASTEIGER

@<TRIPOS>ATOM
      1 C         138.8447  141.5475  164.9068 C.3     1  UNL1        0.4092
      2 N         138.8818  140.0986  164.5203 N.ar    1  UNL1       -0.1494
      3 C         138.9352  139.7096  163.0727 C.ar    1  UNL1        0.2699
      4 C         138.9722  138.2607  162.6863 C.ar    1  UNL1        0.0787
      5 C         138.9558  137.2008  163.7475 C.ar    1  UNL1        0.0136
      6 C         138.9024  137.5898  165.1952 C.ar    1  UNL1        0.0787
      7 C         138.8654  139.0387  165.5816 C.ar    1  UNL1        0.2699
      8 C         138.9516  140.7695  162.0113 C.1     1  UNL1        0.0075
      9 C         138.9681  141.8294  160.9501 C.1     1  UNL1       -0.0335
     10 C         138.9845  142.8893  159.8887 C.3     1  UNL1        0.2816
     11 O         139.4728  144.2696  160.2147 O.3     1  UNL1       -0.4612
     12 C         140.2856  144.5045  161.4533 C.ar    1  UNL1        0.1400
     13 C         139.6007  144.7932  162.7562 C.ar    1  UNL1        0.0369
     14 C         140.4135  145.0281  163.9948 C.ar    1  UNL1        0.0031
     15 C         141.9112  144.9743  163.9306 C.ar    1  UNL1        0.0002
     16 C         142.5960  144.6856  162.6277 C.ar    1  UNL1        0.0031
     17 C         141.7832  144.4506  161.3890 C.ar    1  UNL1        0.0369
     18 C         138.8119  139.4276  167.0294 C.1     1  UNL1        0.0075
     19 C         138.7584  139.8166  168.4770 C.1     1  UNL1       -0.0335
     20 C         138.7050  140.2056  169.9248 C.3     1  UNL1        0.2816
     21 O         139.5066  141.3737  170.4176 O.3     1  UNL1       -0.4612
     22 C         140.8291  141.6953  169.7871 C.ar    1  UNL1        0.1400
     23 C         142.1022  141.4060  170.5256 C.ar    1  UNL1        0.0369
     24 C         143.4247  141.7275  169.8951 C.ar    1  UNL1        0.0031
     25 C         143.4741  142.3384  168.5260 C.ar    1  UNL1        0.0002
     26 C         142.2010  142.6276  167.7874 C.ar    1  UNL1        0.0031
     27 C         140.8785  142.3061  168.4180 C.ar    1  UNL1        0.0369
@<TRIPOS>UNITY_ATOM_ATTR
2 1
charge 1
@<TRIPOS>BOND
     1     1     2    1
     2     2     3   ar
     3     3     8    1
     4     8     9    3
     5     9    10    1
     6    10    11    1
     7    11    12    1
     8    12    13   ar
     9    13    14   ar
    10    14    15   ar
    11    15    16   ar
    12    16    17   ar
    13     3     4   ar
    14     4     5   ar
    15     5     6   ar
    16     6     7   ar
    17     7    18    1
    18    18    19    3
    19    19    20    1
    20    20    21    1
    21    21    22    1
    22    22    23   ar
    23    23    24   ar
    24    24    25   ar
    25    25    26   ar
    26    26    27   ar
    27     7     2   ar
    28    27    22   ar
    29    17    12   ar
@<TRIPOS>MOLECULE
*****
 27 29 0 0 0
SMALL
GASTEIGER

@<TRIPOS>ATOM
      1 C         141.1182  140.6340  163.5273 C.3     1  UNL1        0.4092
      2 N         140.0357  140.3390  162.5318 N.ar    1  UNL1       -0.1494
      3 C         138.7396  139.7382  162.9891 C.ar    1  UNL1        0.2699
      4 C         137.6571  139.4431  161.9935 C.ar    1  UNL1        0.0787
      5 C         137.8708  139.7488  160.5406 C.ar    1  UNL1        0.0136
      6 C         139.1669  140.3495  160.0833 C.ar    1  UNL1        0.0787
      7 C         140.2493  140.6446  161.0789 C.ar    1  UNL1        0.2699
      8 C         138.5259  139.4325  164.4420 C.1     1  UNL1        0.0075
      9 C         138.3122  139.1269  165.8949 C.1     1  UNL1       -0.0335
     10 C         138.0985  138.8212  167.3478 C.3     1  UNL1        0.2816
     11 O         138.6610  139.7339  168.3969 O.3     1  UNL1       -0.4612
     12 C         140.0218  140.3378  168.2142 C.ar    1  UNL1        0.1400
     13 C         140.1660  141.6751  167.5502 C.ar    1  UNL1        0.0369
     14 C         141.5268  142.2790  167.3675 C.ar    1  UNL1        0.0031
     15 C         142.7435  141.5456  167.8488 C.ar    1  UNL1        0.0002
     16 C         142.5994  140.2083  168.5128 C.ar    1  UNL1        0.0031
     17 C         141.2385  139.6044  168.6955 C.ar    1  UNL1        0.0369
     18 C         141.5455  141.2454  160.6215 C.1     1  UNL1        0.0075
     19 C         142.8416  141.8461  160.1642 C.1     1  UNL1       -0.0335
     20 C         144.1378  142.4468  159.7068 C.3     1  UNL1        0.2816
     21 O         145.1934  142.8059  160.7102 O.3     1  UNL1       -0.4612
     22 C         144.8174  143.0398  162.1433 C.ar    1  UNL1        0.1400
     23 C         144.1672  144.3298  162.5472 C.ar    1  UNL1        0.0369
     24 C         143.7912  144.5637  163.9803 C.ar    1  UNL1        0.0031
     25 C         144.0653  143.5075  165.0096 C.ar    1  UNL1        0.0002
     26 C         144.7154  142.2175  164.6058 C.ar    1  UNL1        0.0031
     27 C         145.0915  141.9836  163.1726 C.ar    1  UNL1        0.0369
@<TRIPOS>UNITY_ATOM_ATTR
2 1
charge 1
@<TRIPOS>BOND
     1     1     2    1
     2     2     3   ar
     3     3     8    1
     4     8     9    3
     5     9    10    1
     6    10    11    1
     7    11    12    1
     8    12    13   ar
     9    13    14   ar
    10    14    15   ar
    11    15    16   ar
    12    16    17   ar
    13     3     4   ar
    14     4     5   ar
    15     5     6   ar
    16     6     7   ar
    17     7    18    1
    18    18    19    3
    19    19    20    1
    20    20    21    1
    21    21    22    1
    22    22    23   ar
    23    23    24   ar
    24    24    25   ar
    25    25    26   ar
    26    26    27   ar
    27     7     2   ar
    28    27    22   ar
    29    17    12   ar
