@<TRIPOS>MOLECULE
*****
 27 30 0 0 0
SMALL
GASTEIGER

@<TRIPOS>ATOM
      1 C         141.2665  138.7697  158.1118 C.3     1  UNL1        0.1355
      2 C         141.7513  137.4726  157.5350 C.3     1  UNL1        0.0700
      3 C         143.0515  137.7341  156.8342 C.3     1  UNL1        0.1834
      4 C         143.3702  139.1927  156.9778 C.3     1  UNL1        0.1130
      5 N         142.2671  139.8327  157.7674 N.3     1  UNL1       -0.2882
      6 H         141.8203  140.5611  157.2104 H       1  UNL1        0.1237
      7 O         138.7449  139.3897  158.1954 O.2     1  UNL1       -0.2734
      8 C         140.0030  138.9686  158.8953 C.2     1  UNL1        0.2401
      9 N         139.9975  138.7464  160.3787 N.am    1  UNL1       -0.2770
     10 C         141.3069  138.3275  160.9788 C.3     1  UNL1        0.0949
     11 C         141.6256  138.0312  162.4144 C.3     1  UNL1        0.0388
     12 C         140.7137  138.0807  163.6042 C.3     1  UNL1        0.0739
     13 N         139.2578  138.4387  163.6526 N.3     1  UNL1       -0.2725
     14 C         138.3544  138.8356  162.5229 C.3     1  UNL1        0.0938
     15 C         138.6836  138.9725  161.0659 C.3     1  UNL1        0.1107
     16 C         138.6213  138.3938  165.0101 C.3     1  UNL1        0.0576
     17 C         138.1294  139.4218  165.9855 C.3     1  UNL1        0.0160
     18 C         137.7211  138.3304  166.9299 C.3     1  UNL1        0.0028
     19 C         138.2130  137.3023  165.9546 C.3     1  UNL1        0.0160
     20 O         143.8863  136.7157  156.1159 O.3     1  UNL1       -0.4777
     21 C         143.4142  135.2955  156.0144 C.ar    1  UNL1        0.1386
     22 C         142.7289  134.8203  154.7676 C.ar    1  UNL1        0.0392
     23 C         142.2567  133.4002  154.6661 C.ar    1  UNL1        0.0327
     24 C         142.4699  132.4553  155.8114 C.ar    1  UNL1        0.1403
     25 F         141.9978  131.0351  155.7100 F       1  UNL1       -0.2042
     26 C         143.1552  132.9305  157.0582 C.ar    1  UNL1        0.0327
     27 C         143.6274  134.3507  157.1597 C.ar    1  UNL1        0.0392
@<TRIPOS>BOND
     1     7     8    2
     2     8     1    1
     3     1     2    1
     4     2     3    1
     5     3    20    1
     6    20    21    1
     7    21    22   ar
     8    22    23   ar
     9    23    24   ar
    10    24    25    1
    11    24    26   ar
    12    26    27   ar
    13     3     4    1
    14     4     5    1
    15     8     9   am
    16     9    10    1
    17    10    11    1
    18    11    12    1
    19    12    13    1
    20    13    16    1
    21    16    17    1
    22    17    18    1
    23    18    19    1
    24    13    14    1
    25    14    15    1
    26     5     1    1
    27    15     9    1
    28    27    21   ar
    29    19    16    1
    30     5     6    1
@<TRIPOS>MOLECULE
*****
 27 30 0 0 0
SMALL
GASTEIGER

@<TRIPOS>ATOM
      1 C         139.4193  138.4104  165.2618 C.3     1  UNL1        0.1355
      2 C         139.9966  139.3864  166.2438 C.3     1  UNL1        0.0700
      3 C         139.0511  139.4910  167.4037 C.3     1  UNL1        0.1834
      4 C         137.8896  138.5797  167.1385 C.3     1  UNL1        0.1130
      5 N         138.1172  137.9119  165.8148 N.3     1  UNL1       -0.2882
      6 H         137.3577  138.1442  165.1748 H       1  UNL1        0.1237
      7 O         141.1384  136.9874  163.9315 O.2     1  UNL1       -0.2734
      8 C         140.0360  138.0043  163.9562 C.2     1  UNL1        0.2401
      9 N         139.5504  138.6152  162.6752 N.am    1  UNL1       -0.2770
     10 C         138.4454  139.6205  162.8115 C.3     1  UNL1        0.0949
     11 C         137.7511  140.3990  161.7335 C.3     1  UNL1        0.0388
     12 C         137.9902  140.3643  160.2532 C.3     1  UNL1        0.0739
     13 N         138.9827  139.5428  159.4850 N.3     1  UNL1       -0.2725
     14 C         139.9812  138.5529  160.0076 C.3     1  UNL1        0.0938
     15 C         140.2338  138.1402  161.4274 C.3     1  UNL1        0.1107
     16 C         138.9757  139.7368  157.9977 C.3     1  UNL1        0.0576
     17 C         138.4004  140.7603  157.0641 C.3     1  UNL1        0.0160
     18 C         138.9659  140.0111  155.8941 C.3     1  UNL1        0.0028
     19 C         139.5412  138.9875  156.8276 C.3     1  UNL1        0.0160
     20 O         139.2350  140.3552  168.6159 O.3     1  UNL1       -0.4777
     21 C         140.6026  140.8488  168.9847 C.ar    1  UNL1        0.1386
     22 C         141.5893  139.9168  169.6234 C.ar    1  UNL1        0.0392
     23 C         142.9568  140.4103  169.9922 C.ar    1  UNL1        0.0327
     24 C         143.3378  141.8358  169.7223 C.ar    1  UNL1        0.1403
     25 F         144.7054  142.3294  170.0911 F       1  UNL1       -0.2042
     26 C         142.3511  142.7677  169.0836 C.ar    1  UNL1        0.0327
     27 C         140.9835  142.2742  168.7148 C.ar    1  UNL1        0.0392
@<TRIPOS>BOND
     1     7     8    2
     2     8     1    1
     3     1     2    1
     4     2     3    1
     5     3    20    1
     6    20    21    1
     7    21    22   ar
     8    22    23   ar
     9    23    24   ar
    10    24    25    1
    11    24    26   ar
    12    26    27   ar
    13     3     4    1
    14     4     5    1
    15     8     9   am
    16     9    10    1
    17    10    11    1
    18    11    12    1
    19    12    13    1
    20    13    16    1
    21    16    17    1
    22    17    18    1
    23    18    19    1
    24    13    14    1
    25    14    15    1
    26     5     1    1
    27    15     9    1
    28    27    21   ar
    29    19    16    1
    30     5     6    1
@<TRIPOS>MOLECULE
*****
 27 30 0 0 0
SMALL
GASTEIGER

@<TRIPOS>ATOM
      1 C         138.8041  140.1974  165.2526 C.3     1  UNL1        0.1355
      2 C         139.6173  140.4908  166.4784 C.3     1  UNL1        0.0700
      3 C         139.0554  139.6842  167.6114 C.3     1  UNL1        0.1834
      4 C         137.8950  138.8923  167.0858 C.3     1  UNL1        0.1130
      5 N         137.7397  139.2095  165.6280 N.3     1  UNL1       -0.2882
      6 H         136.8182  139.6121  165.4577 H       1  UNL1        0.1237
      7 O         138.4010  142.1100  163.5411 O.2     1  UNL1       -0.2734
      8 C         139.0179  140.7882  163.8905 C.2     1  UNL1        0.2401
      9 N         139.8486  140.0571  162.8778 N.am    1  UNL1       -0.2770
     10 C         140.4187  138.7449  163.3288 C.3     1  UNL1        0.0949
     11 C         141.2803  137.7864  162.5614 C.3     1  UNL1        0.0388
     12 C         141.7846  137.9033  161.1536 C.3     1  UNL1        0.0739
     13 N         141.5520  139.0076  160.1654 N.3     1  UNL1       -0.2725
     14 C         140.7574  140.2677  160.3411 C.3     1  UNL1        0.0938
     15 C         139.9994  140.7347  161.5483 C.3     1  UNL1        0.1107
     16 C         142.1994  138.8280  158.8244 C.3     1  UNL1        0.0576
     17 C         142.5260  137.6513  157.9532 C.3     1  UNL1        0.0160
     18 C         143.1150  138.5740  156.9278 C.3     1  UNL1        0.0028
     19 C         142.7885  139.7507  157.7988 C.3     1  UNL1        0.0160
     20 O         139.5646  139.6717  169.0224 O.3     1  UNL1       -0.4777
     21 C         140.5793  140.6849  169.4625 C.ar    1  UNL1        0.1386
     22 C         142.0137  140.2825  169.6380 C.ar    1  UNL1        0.0392
     23 C         143.0284  141.2956  170.0781 C.ar    1  UNL1        0.0327
     24 C         142.6089  142.7112  170.3427 C.ar    1  UNL1        0.1403
     25 F         143.6236  143.7244  170.7829 F       1  UNL1       -0.2042
     26 C         141.1746  143.1136  170.1672 C.ar    1  UNL1        0.0327
     27 C         140.1598  142.1004  169.7271 C.ar    1  UNL1        0.0392
@<TRIPOS>BOND
     1     7     8    2
     2     8     1    1
     3     1     2    1
     4     2     3    1
     5     3    20    1
     6    20    21    1
     7    21    22   ar
     8    22    23   ar
     9    23    24   ar
    10    24    25    1
    11    24    26   ar
    12    26    27   ar
    13     3     4    1
    14     4     5    1
    15     8     9   am
    16     9    10    1
    17    10    11    1
    18    11    12    1
    19    12    13    1
    20    13    16    1
    21    16    17    1
    22    17    18    1
    23    18    19    1
    24    13    14    1
    25    14    15    1
    26     5     1    1
    27    15     9    1
    28    27    21   ar
    29    19    16    1
    30     5     6    1
@<TRIPOS>MOLECULE
*****
 27 30 0 0 0
SMALL
GASTEIGER

@<TRIPOS>ATOM
      1 C         139.4251  143.4331  159.8882 C.3     1  UNL1        0.1355
      2 C         138.5694  142.2831  160.3299 C.3     1  UNL1        0.0700
      3 C         138.0752  142.5782  161.7151 C.3     1  UNL1        0.1834
      4 C         138.6255  143.9107  162.1294 C.3     1  UNL1        0.1130
      5 N         139.4598  144.4390  161.0004 N.3     1  UNL1       -0.2882
      6 H         140.4207  144.5750  161.3142 H       1  UNL1        0.1237
      7 O         139.3898  144.1035  157.3784 O.2     1  UNL1       -0.2734
      8 C         140.1235  143.5557  158.5664 C.2     1  UNL1        0.2401
      9 N         141.5557  143.1304  158.4326 N.am    1  UNL1       -0.2770
     10 C         142.1955  142.5972  159.6802 C.3     1  UNL1        0.0949
     11 C         143.5964  142.0964  159.8722 C.3     1  UNL1        0.0388
     12 C         144.7034  142.0052  158.8642 C.3     1  UNL1        0.0739
     13 N         144.6830  142.3923  157.4151 N.3     1  UNL1       -0.2725
     14 C         143.5506  142.9661  156.6162 C.3     1  UNL1        0.0938
     15 C         142.1588  143.2946  157.0691 C.3     1  UNL1        0.1107
     16 C         145.9645  142.1770  156.6659 C.3     1  UNL1        0.0576
     17 C         147.3569  142.7260  156.7662 C.3     1  UNL1        0.0160
     18 C         147.7769  141.8726  155.6063 C.3     1  UNL1        0.0028
     19 C         146.3846  141.3237  155.5059 C.3     1  UNL1        0.0160
     20 O         137.1866  141.6958  162.5409 O.3     1  UNL1       -0.4777
     21 C         137.7598  140.5001  163.2422 C.ar    1  UNL1        0.1386
     22 C         138.0181  140.5492  164.7190 C.ar    1  UNL1        0.0392
     23 C         138.5911  139.3536  165.4203 C.ar    1  UNL1        0.0327
     24 C         138.9059  138.1088  164.6449 C.ar    1  UNL1        0.1403
     25 F         139.4790  136.9131  165.3462 F       1  UNL1       -0.2042
     26 C         138.6476  138.0596  163.1681 C.ar    1  UNL1        0.0327
     27 C         138.0745  139.2554  162.4668 C.ar    1  UNL1        0.0392
@<TRIPOS>BOND
     1     7     8    2
     2     8     1    1
     3     1     2    1
     4     2     3    1
     5     3    20    1
     6    20    21    1
     7    21    22   ar
     8    22    23   ar
     9    23    24   ar
    10    24    25    1
    11    24    26   ar
    12    26    27   ar
    13     3     4    1
    14     4     5    1
    15     8     9   am
    16     9    10    1
    17    10    11    1
    18    11    12    1
    19    12    13    1
    20    13    16    1
    21    16    17    1
    22    17    18    1
    23    18    19    1
    24    13    14    1
    25    14    15    1
    26     5     1    1
    27    15     9    1
    28    27    21   ar
    29    19    16    1
    30     5     6    1
@<TRIPOS>MOLECULE
*****
 27 30 0 0 0
SMALL
GASTEIGER

@<TRIPOS>ATOM
      1 C         138.2201  141.2213  160.1891 C.3     1  UNL1        0.1355
      2 C         137.7566  140.7659  161.5411 C.3     1  UNL1        0.0700
      3 C         137.8131  141.9417  162.4708 C.3     1  UNL1        0.1834
      4 C         138.3114  143.1238  161.6934 C.3     1  UNL1        0.1130
      5 N         138.5629  142.6785  160.2833 N.3     1  UNL1       -0.2882
      6 H         139.5449  142.8191  160.0459 H       1  UNL1        0.1237
      7 O         137.1959  140.3418  157.9694 O.2     1  UNL1       -0.2734
      8 C         138.3227  140.3690  158.9591 C.2     1  UNL1        0.2401
      9 N         139.5521  139.5439  158.7187 N.am    1  UNL1       -0.2770
     10 C         140.6183  139.6435  159.7692 C.3     1  UNL1        0.0949
     11 C         141.9485  138.9520  159.8200 C.3     1  UNL1        0.0388
     12 C         142.5409  137.9904  158.8331 C.3     1  UNL1        0.0739
     13 N         141.9496  137.4826  157.5514 N.3     1  UNL1       -0.2725
     14 C         140.6198  137.8111  156.9403 C.3     1  UNL1        0.0938
     15 C         139.5528  138.7285  157.4598 C.3     1  UNL1        0.1107
     16 C         142.8007  136.5189  156.7789 C.3     1  UNL1        0.0576
     17 C         143.8323  136.6460  155.6973 C.3     1  UNL1        0.0160
     18 C         144.0044  135.1560  155.6862 C.3     1  UNL1        0.0028
     19 C         142.9729  135.0288  156.7678 C.3     1  UNL1        0.0160
     20 O         137.4372  141.9364  163.9230 O.3     1  UNL1       -0.4777
     21 C         138.3810  141.3663  164.9399 C.ar    1  UNL1        0.1386
     22 C         138.2355  139.9403  165.3818 C.ar    1  UNL1        0.0392
     23 C         139.1792  139.3702  166.3987 C.ar    1  UNL1        0.0327
     24 C         140.2686  140.2261  166.9738 C.ar    1  UNL1        0.1403
     25 F         141.2124  139.6561  167.9908 F       1  UNL1       -0.2042
     26 C         140.4141  141.6522  166.5320 C.ar    1  UNL1        0.0327
     27 C         139.4703  142.2222  165.5150 C.ar    1  UNL1        0.0392
@<TRIPOS>BOND
     1     7     8    2
     2     8     1    1
     3     1     2    1
     4     2     3    1
     5     3    20    1
     6    20    21    1
     7    21    22   ar
     8    22    23   ar
     9    23    24   ar
    10    24    25    1
    11    24    26   ar
    12    26    27   ar
    13     3     4    1
    14     4     5    1
    15     8     9   am
    16     9    10    1
    17    10    11    1
    18    11    12    1
    19    12    13    1
    20    13    16    1
    21    16    17    1
    22    17    18    1
    23    18    19    1
    24    13    14    1
    25    14    15    1
    26     5     1    1
    27    15     9    1
    28    27    21   ar
    29    19    16    1
    30     5     6    1
@<TRIPOS>MOLECULE
*****
 27 30 0 0 0
SMALL
GASTEIGER

@<TRIPOS>ATOM
      1 C         141.8697  137.9299  162.1647 C.3     1  UNL1        0.1355
      2 C         142.5721  138.8794  163.0895 C.3     1  UNL1        0.0700
      3 C         142.3430  138.4111  164.4960 C.3     1  UNL1        0.1834
      4 C         141.4991  137.1724  164.4405 C.3     1  UNL1        0.1130
      5 N         141.2065  136.8750  162.9997 N.3     1  UNL1       -0.2882
      6 H         140.1991  136.8903  162.8408 H       1  UNL1        0.1237
      7 O         142.9516  137.4305  159.8560 O.2     1  UNL1       -0.2734
      8 C         141.8363  138.0197  160.6678 C.2     1  UNL1        0.2401
      9 N         140.6877  138.6987  159.9826 N.am    1  UNL1       -0.2770
     10 C         139.6265  139.2531  160.8863 C.3     1  UNL1        0.0949
     11 C         138.3676  139.9793  160.5149 C.3     1  UNL1        0.0388
     12 C         137.8590  140.3304  159.1482 C.3     1  UNL1        0.0739
     13 N         138.4836  140.0422  157.8152 N.3     1  UNL1       -0.2725
     14 C         139.7711  139.3315  157.5198 C.3     1  UNL1        0.0938
     15 C         140.7520  138.7336  158.4845 C.3     1  UNL1        0.1107
     16 C         137.7197  140.5288  156.6196 C.3     1  UNL1        0.0576
     17 C         136.4614  141.3193  156.4146 C.3     1  UNL1        0.0160
     18 C         136.6394  141.2172  154.9287 C.3     1  UNL1        0.0028
     19 C         137.8976  140.4267  155.1336 C.3     1  UNL1        0.0160
     20 O         142.8661  139.0667  165.7397 O.3     1  UNL1       -0.4777
     21 C         141.9226  139.4404  166.8442 C.ar    1  UNL1        0.1386
     22 C         142.4016  139.4591  168.2656 C.ar    1  UNL1        0.0392
     23 C         141.4581  139.8328  169.3701 C.ar    1  UNL1        0.0327
     24 C         140.0355  140.1877  169.0534 C.ar    1  UNL1        0.1403
     25 F         139.0919  140.5613  170.1579 F       1  UNL1       -0.2042
     26 C         139.5565  140.1689  167.6320 C.ar    1  UNL1        0.0327
     27 C         140.5001  139.7952  166.5275 C.ar    1  UNL1        0.0392
@<TRIPOS>BOND
     1     7     8    2
     2     8     1    1
     3     1     2    1
     4     2     3    1
     5     3    20    1
     6    20    21    1
     7    21    22   ar
     8    22    23   ar
     9    23    24   ar
    10    24    25    1
    11    24    26   ar
    12    26    27   ar
    13     3     4    1
    14     4     5    1
    15     8     9   am
    16     9    10    1
    17    10    11    1
    18    11    12    1
    19    12    13    1
    20    13    16    1
    21    16    17    1
    22    17    18    1
    23    18    19    1
    24    13    14    1
    25    14    15    1
    26     5     1    1
    27    15     9    1
    28    27    21   ar
    29    19    16    1
    30     5     6    1
@<TRIPOS>MOLECULE
*****
 27 30 0 0 0
SMALL
GASTEIGER

@<TRIPOS>ATOM
      1 C         138.3072  140.8416  162.3261 C.3     1  UNL1        0.1355
      2 C         139.5214  140.3666  163.0677 C.3     1  UNL1        0.0700
      3 C         139.1997  140.3682  164.5329 C.3     1  UNL1        0.1834
      4 C         137.7867  140.8441  164.6966 C.3     1  UNL1        0.1130
      5 N         137.2351  141.1367  163.3328 N.3     1  UNL1       -0.2882
      6 H         136.9642  142.1182  163.2722 H       1  UNL1        0.1237
      7 O         137.4875  139.9415  160.0308 O.2     1  UNL1       -0.2734
      8 C         138.1863  140.9945  160.8388 C.2     1  UNL1        0.2401
      9 N         138.7643  142.2005  160.1595 N.am    1  UNL1       -0.2770
     10 C         139.4415  143.1920  161.0587 C.3     1  UNL1        0.0949
     11 C         140.1103  144.4835  160.6913 C.3     1  UNL1        0.0388
     12 C         140.2671  145.1023  159.3340 C.3     1  UNL1        0.0739
     13 N         139.7939  144.5827  158.0088 N.3     1  UNL1       -0.2725
     14 C         139.0470  143.3158  157.7137 C.3     1  UNL1        0.0938
     15 C         138.5888  142.2557  158.6709 C.3     1  UNL1        0.1107
     16 C         140.1094  145.4438  156.8219 C.3     1  UNL1        0.0576
     17 C         141.1729  145.4438  155.7640 C.3     1  UNL1        0.0160
     18 C         140.5555  146.6617  155.1432 C.3     1  UNL1        0.0028
     19 C         139.4919  146.6618  156.2009 C.3     1  UNL1        0.0160
     20 O         140.1281  139.9646  165.6398 O.3     1  UNL1       -0.4777
     21 C         140.0679  140.6684  166.9631 C.ar    1  UNL1        0.1386
     22 C         139.4984  139.9669  168.1605 C.ar    1  UNL1        0.0392
     23 C         139.4383  140.6706  169.4837 C.ar    1  UNL1        0.0327
     24 C         139.9477  142.0758  169.6098 C.ar    1  UNL1        0.1403
     25 F         139.8875  142.7796  170.9331 F       1  UNL1       -0.2042
     26 C         140.5172  142.7773  168.4125 C.ar    1  UNL1        0.0327
     27 C         140.5773  142.0735  167.0892 C.ar    1  UNL1        0.0392
@<TRIPOS>BOND
     1     7     8    2
     2     8     1    1
     3     1     2    1
     4     2     3    1
     5     3    20    1
     6    20    21    1
     7    21    22   ar
     8    22    23   ar
     9    23    24   ar
    10    24    25    1
    11    24    26   ar
    12    26    27   ar
    13     3     4    1
    14     4     5    1
    15     8     9   am
    16     9    10    1
    17    10    11    1
    18    11    12    1
    19    12    13    1
    20    13    16    1
    21    16    17    1
    22    17    18    1
    23    18    19    1
    24    13    14    1
    25    14    15    1
    26     5     1    1
    27    15     9    1
    28    27    21   ar
    29    19    16    1
    30     5     6    1
@<TRIPOS>MOLECULE
*****
 27 30 0 0 0
SMALL
GASTEIGER

@<TRIPOS>ATOM
      1 C         140.8798  145.1021  159.5947 C.3     1  UNL1        0.1355
      2 C         139.8581  145.4673  158.5588 C.3     1  UNL1        0.0700
      3 C         140.5817  145.7659  157.2792 C.3     1  UNL1        0.1834
      4 C         142.0504  145.5851  157.5242 C.3     1  UNL1        0.1130
      5 N         142.2346  145.1749  158.9552 N.3     1  UNL1       -0.2882
      6 H         142.8102  145.8627  159.4411 H       1  UNL1        0.1237
      7 O         140.5828  145.7873  162.0831 O.2     1  UNL1       -0.2734
      8 C         140.5962  144.7295  161.0197 C.2     1  UNL1        0.2401
      9 N         140.3260  143.2991  161.3814 N.am    1  UNL1       -0.2770
     10 C         140.3633  142.3220  160.2438 C.3     1  UNL1        0.0949
     11 C         140.1380  140.8393  160.2767 C.3     1  UNL1        0.0388
     12 C         139.8198  139.9677  161.4551 C.3     1  UNL1        0.0739
     13 N         139.6484  140.3632  162.8918 N.3     1  UNL1       -0.2725
     14 C         139.7527  141.7282  163.5049 C.3     1  UNL1        0.0938
     15 C         140.0543  143.0348  162.8326 C.3     1  UNL1        0.1107
     16 C         139.3306  139.2461  163.8410 C.3     1  UNL1        0.0576
     17 C         138.5761  139.1339  165.1327 C.3     1  UNL1        0.0160
     18 C         138.8810  137.6662  165.1834 C.3     1  UNL1        0.0028
     19 C         139.6355  137.7782  163.8917 C.3     1  UNL1        0.0160
     20 O         139.9477  146.1736  155.9823 O.3     1  UNL1       -0.4777
     21 C         139.5529  147.6030  155.7572 C.ar    1  UNL1        0.1386
     22 C         138.7490  148.3311  156.7934 C.ar    1  UNL1        0.0392
     23 C         138.3542  149.7606  156.5683 C.ar    1  UNL1        0.0327
     24 C         138.7632  150.4620  155.3071 C.ar    1  UNL1        0.1403
     25 F         138.3683  151.8915  155.0820 F       1  UNL1       -0.2042
     26 C         139.5671  149.7339  154.2709 C.ar    1  UNL1        0.0327
     27 C         139.9619  148.3044  154.4960 C.ar    1  UNL1        0.0392
@<TRIPOS>BOND
     1     7     8    2
     2     8     1    1
     3     1     2    1
     4     2     3    1
     5     3    20    1
     6    20    21    1
     7    21    22   ar
     8    22    23   ar
     9    23    24   ar
    10    24    25    1
    11    24    26   ar
    12    26    27   ar
    13     3     4    1
    14     4     5    1
    15     8     9   am
    16     9    10    1
    17    10    11    1
    18    11    12    1
    19    12    13    1
    20    13    16    1
    21    16    17    1
    22    17    18    1
    23    18    19    1
    24    13    14    1
    25    14    15    1
    26     5     1    1
    27    15     9    1
    28    27    21   ar
    29    19    16    1
    30     5     6    1
@<TRIPOS>MOLECULE
*****
 27 30 0 0 0
SMALL
GASTEIGER

@<TRIPOS>ATOM
      1 C         138.5767  142.1369  160.5066 C.3     1  UNL1        0.1355
      2 C         139.5331  141.3065  161.3102 C.3     1  UNL1        0.0700
      3 C         139.2831  141.5868  162.7625 C.3     1  UNL1        0.1834
      4 C         138.1723  142.5903  162.8564 C.3     1  UNL1        0.1130
      5 N         137.7357  142.9303  161.4622 N.3     1  UNL1       -0.2882
      6 H         137.8660  143.9276  161.2922 H       1  UNL1        0.1237
      7 O         137.7461  141.0797  158.2835 O.2     1  UNL1       -0.2734
      8 C         138.4787  142.1684  159.0102 C.2     1  UNL1        0.2401
      9 N         139.1132  143.2885  158.2403 N.am    1  UNL1       -0.2770
     10 C         139.8206  144.3245  159.0628 C.3     1  UNL1        0.0949
     11 C         140.5460  145.5525  158.5979 C.3     1  UNL1        0.0388
     12 C         140.7430  146.0476  157.1958 C.3     1  UNL1        0.0739
     13 N         140.2635  145.4372  155.9123 N.3     1  UNL1       -0.2725
     14 C         139.4684  144.1809  155.7138 C.3     1  UNL1        0.0938
     15 C         138.9565  143.2246  156.7500 C.3     1  UNL1        0.1107
     16 C         140.6271  146.1816  154.6619 C.3     1  UNL1        0.0576
     17 C         140.2788  147.5223  154.0863 C.3     1  UNL1        0.0160
     18 C         141.1413  147.2344  152.8934 C.3     1  UNL1        0.0028
     19 C         141.4897  145.8937  153.4688 C.3     1  UNL1        0.0160
     20 O         140.0155  140.9714  163.9180 O.3     1  UNL1       -0.4777
     21 C         139.3829  139.8585  164.6999 C.ar    1  UNL1        0.1386
     22 C         139.5484  138.4373  164.2496 C.ar    1  UNL1        0.0392
     23 C         138.9159  137.3244  165.0315 C.ar    1  UNL1        0.0327
     24 C         138.1179  137.6327  166.2636 C.ar    1  UNL1        0.1403
     25 F         137.4853  136.5198  167.0455 F       1  UNL1       -0.2042
     26 C         137.9524  139.0539  166.7139 C.ar    1  UNL1        0.0327
     27 C         138.5850  140.1668  165.9319 C.ar    1  UNL1        0.0392
@<TRIPOS>BOND
     1     7     8    2
     2     8     1    1
     3     1     2    1
     4     2     3    1
     5     3    20    1
     6    20    21    1
     7    21    22   ar
     8    22    23   ar
     9    23    24   ar
    10    24    25    1
    11    24    26   ar
    12    26    27   ar
    13     3     4    1
    14     4     5    1
    15     8     9   am
    16     9    10    1
    17    10    11    1
    18    11    12    1
    19    12    13    1
    20    13    16    1
    21    16    17    1
    22    17    18    1
    23    18    19    1
    24    13    14    1
    25    14    15    1
    26     5     1    1
    27    15     9    1
    28    27    21   ar
    29    19    16    1
    30     5     6    1
