@<TRIPOS>MOLECULE
*****
 33 36 0 0 0
SMALL
GASTEIGER

@<TRIPOS>ATOM
      1 C         142.8712  137.8866  157.7536 C.ar    1  UNL1        0.1681
      2 N         143.6838  138.5976  156.7124 N.ar    1  UNL1       -0.1948
      3 C         143.7343  138.0682  155.3098 C.ar    1  UNL1        0.2174
      4 N         144.5468  138.7792  154.2686 N.pl3   1  UNL1       -0.3273
      5 N         142.9723  136.8277  154.9485 N.ar    1  UNL1       -0.1810
      6 C         142.1598  136.1166  155.9898 C.ar    1  UNL1        0.2244
      7 N         142.1092  136.6461  157.3923 N.ar    1  UNL1       -0.1943
      8 H         145.0470  139.5934  154.5057 H       1  UNL1        0.1452
      9 H         144.5800  138.4317  153.3480 H       1  UNL1        0.1452
     10 C         143.0796  137.4983  160.3140 C.2     1  UNL1        0.0032
     11 C         142.8207  138.4160  159.1561 C.2     1  UNL1        0.0389
     12 C         144.1373  139.3345  163.6695 C.ar    1  UNL1        0.1547
     13 C         144.1878  138.8051  162.2671 C.ar    1  UNL1        0.0384
     14 C         143.0290  138.0278  161.7166 C.ar    1  UNL1        0.0032
     15 C         141.8197  137.7800  162.5687 C.ar    1  UNL1        0.0017
     16 C         141.7692  138.3095  163.9712 C.ar    1  UNL1        0.0206
     17 C         142.9280  139.0867  164.5216 C.ar    1  UNL1        0.0994
     18 N         142.8774  139.6162  165.9242 N.ar    1  UNL1       -0.2839
     19 C         143.0569  138.8117  167.1774 C.ar    1  UNL1        0.1826
     20 N         142.9289  139.7415  168.3474 N.ar    1  UNL1       -0.2280
     21 C         142.6702  141.1207  167.8174 C.ar    1  UNL1        0.0786
     22 C         142.4773  142.3597  168.6405 C.3     1  UNL1        0.0538
     23 C         142.6384  141.0433  166.3198 C.ar    1  UNL1        0.0963
     24 C         145.6635  141.4365  163.6198 C.3     1  UNL1        0.2525
     25 O         145.2961  140.1118  164.2200 O.3     1  UNL1       -0.4700
     26 N         141.3978  134.8762  155.6285 N.pl3   1  UNL1       -0.2824
     27 H         140.4346  134.9299  155.4317 H       1  UNL1        0.1551
     28 C         142.1032  133.5538  155.5670 C.ar    1  UNL1        0.0505
     29 C         141.3407  132.3130  155.2080 C.ar    1  UNL1        0.0147
     30 C         142.0461  130.9906  155.1465 C.ar    1  UNL1        0.0013
     31 C         143.5140  130.9091  155.4440 C.ar    1  UNL1        0.0001
     32 C         144.2765  132.1500  155.8030 C.ar    1  UNL1        0.0013
     33 C         143.5711  133.4723  155.8645 C.ar    1  UNL1        0.0147
@<TRIPOS>BOND
     1    24    25    1
     2    25    12    1
     3    12    13   ar
     4    13    14   ar
     5    14    10    1
     6    10    11    2
     7    11     1    1
     8     1     2   ar
     9     2     3   ar
    10     3     4    1
    11     3     5   ar
    12     5     6   ar
    13     6    26    1
    14    26    28    1
    15    28    29   ar
    16    29    30   ar
    17    30    31   ar
    18    31    32   ar
    19    32    33   ar
    20     6     7   ar
    21    14    15   ar
    22    15    16   ar
    23    16    17   ar
    24    17    18    1
    25    18    19   ar
    26    19    20   ar
    27    20    21   ar
    28    21    22    1
    29    21    23   ar
    30    17    12   ar
    31    23    18   ar
    32     7     1   ar
    33    33    28   ar
    34     4     8    1
    35     4     9    1
    36    26    27    1
@<TRIPOS>MOLECULE
*****
 33 36 0 0 0
SMALL
GASTEIGER

@<TRIPOS>ATOM
      1 C         142.9083  137.9135  157.7358 C.ar    1  UNL1        0.1681
      2 N         143.8030  138.5582  156.7190 N.ar    1  UNL1       -0.1948
      3 C         143.8447  138.0312  155.3152 C.ar    1  UNL1        0.2174
      4 N         144.7394  138.6758  154.2983 N.pl3   1  UNL1       -0.3273
      5 N         142.9916  136.8596  154.9283 N.ar    1  UNL1       -0.1810
      6 C         142.0969  136.2150  155.9451 C.ar    1  UNL1        0.2244
      7 N         142.0552  136.7419  157.3489 N.ar    1  UNL1       -0.1943
      8 H         145.2993  139.4447  154.5523 H       1  UNL1        0.1452
      9 H         144.7667  138.3299  153.3770 H       1  UNL1        0.1452
     10 C         142.9799  137.4956  160.2991 C.2     1  UNL1        0.0032
     11 C         142.8667  138.4405  159.1396 C.2     1  UNL1        0.0389
     12 C         141.7591  138.1813  164.0125 C.ar    1  UNL1        0.1547
     13 C         141.8008  137.6544  162.6087 C.ar    1  UNL1        0.0384
     14 C         142.9383  138.0226  161.7029 C.ar    1  UNL1        0.0032
     15 C         144.0341  138.9176  162.2008 C.ar    1  UNL1        0.0017
     16 C         143.9924  139.4446  163.6045 C.ar    1  UNL1        0.0206
     17 C         142.8549  139.0764  164.5104 C.ar    1  UNL1        0.0994
     18 N         142.8132  139.6034  165.9142 N.ar    1  UNL1       -0.2839
     19 C         143.0750  138.8120  167.1612 C.ar    1  UNL1        0.1826
     20 N         142.9260  139.7338  168.3351 N.ar    1  UNL1       -0.2280
     21 C         142.5722  141.0950  167.8136 C.ar    1  UNL1        0.0786
     22 C         142.3305  142.3215  168.6427 C.3     1  UNL1        0.0538
     23 C         142.5025  141.0144  166.3174 C.ar    1  UNL1        0.0963
     24 C         139.2076  138.0717  164.4897 C.3     1  UNL1        0.2525
     25 O         140.6216  137.8132  164.9183 O.3     1  UNL1       -0.4700
     26 N         141.2438  135.0435  155.5582 N.pl3   1  UNL1       -0.2824
     27 H         140.3508  135.1914  155.1711 H       1  UNL1        0.1551
     28 C         141.7514  133.6466  155.7611 C.ar    1  UNL1        0.0505
     29 C         141.1394  132.5083  154.9996 C.ar    1  UNL1        0.0147
     30 C         141.6470  131.1114  155.2025 C.ar    1  UNL1        0.0013
     31 C         142.7665  130.8529  156.1667 C.ar    1  UNL1        0.0001
     32 C         143.3785  131.9912  156.9281 C.ar    1  UNL1        0.0013
     33 C         142.8710  133.3880  156.7253 C.ar    1  UNL1        0.0147
@<TRIPOS>BOND
     1    24    25    1
     2    25    12    1
     3    12    13   ar
     4    13    14   ar
     5    14    10    1
     6    10    11    2
     7    11     1    1
     8     1     2   ar
     9     2     3   ar
    10     3     4    1
    11     3     5   ar
    12     5     6   ar
    13     6    26    1
    14    26    28    1
    15    28    29   ar
    16    29    30   ar
    17    30    31   ar
    18    31    32   ar
    19    32    33   ar
    20     6     7   ar
    21    14    15   ar
    22    15    16   ar
    23    16    17   ar
    24    17    18    1
    25    18    19   ar
    26    19    20   ar
    27    20    21   ar
    28    21    22    1
    29    21    23   ar
    30    17    12   ar
    31    23    18   ar
    32     7     1   ar
    33    33    28   ar
    34     4     8    1
    35     4     9    1
    36    26    27    1
@<TRIPOS>MOLECULE
*****
 33 36 0 0 0
SMALL
GASTEIGER

@<TRIPOS>ATOM
      1 C         141.6195  138.4202  159.3510 C.ar    1  UNL1        0.1681
      2 N         140.3523  138.7157  158.6048 N.ar    1  UNL1       -0.1948
      3 C         140.1677  138.2024  157.2074 C.ar    1  UNL1        0.2174
      4 N         138.9005  138.4978  156.4612 N.pl3   1  UNL1       -0.3273
      5 N         141.2504  137.3938  156.5563 N.ar    1  UNL1       -0.1810
      6 C         142.5176  137.0984  157.3025 C.ar    1  UNL1        0.2244
      7 N         142.7022  137.6116  158.6998 N.ar    1  UNL1       -0.1943
      8 H         138.1899  139.0285  156.8886 H       1  UNL1        0.1452
      9 H         138.7793  138.1610  155.5441 H       1  UNL1        0.1452
     10 C         141.9132  137.9700  161.8928 C.2     1  UNL1        0.0032
     11 C         141.8042  138.9334  160.7483 C.2     1  UNL1        0.0389
     12 C         141.0919  139.1864  165.5801 C.ar    1  UNL1        0.1547
     13 C         140.9074  138.6732  164.1828 C.ar    1  UNL1        0.0384
     14 C         142.0978  138.4833  163.2902 C.ar    1  UNL1        0.0032
     15 C         143.4728  138.8067  163.7949 C.ar    1  UNL1        0.0017
     16 C         143.6574  139.3199  165.1921 C.ar    1  UNL1        0.0206
     17 C         142.4669  139.5098  166.0848 C.ar    1  UNL1        0.0994
     18 N         142.6515  140.0230  167.4821 N.ar    1  UNL1       -0.2839
     19 C         142.7560  139.1858  168.7223 C.ar    1  UNL1        0.1826
     20 N         142.9331  140.1090  169.8913 N.ar    1  UNL1       -0.2280
     21 C         142.9381  141.5168  169.3735 C.ar    1  UNL1        0.0786
     22 C         143.0904  142.7596  170.1996 C.3     1  UNL1        0.0538
     23 C         142.7641  141.4637  167.8846 C.ar    1  UNL1        0.0963
     24 C         138.5382  138.9633  166.0028 C.3     1  UNL1        0.2525
     25 O         139.9015  139.3762  166.4727 O.3     1  UNL1       -0.4700
     26 N         143.6003  136.2898  156.6514 N.pl3   1  UNL1       -0.2824
     27 H         144.4773  136.6981  156.4687 H       1  UNL1        0.1551
     28 C         143.3467  134.8592  156.2785 C.ar    1  UNL1        0.0505
     29 C         142.9945  134.5038  154.8644 C.ar    1  UNL1        0.0147
     30 C         142.7408  133.0733  154.4915 C.ar    1  UNL1        0.0013
     31 C         142.8394  131.9980  155.5327 C.ar    1  UNL1        0.0001
     32 C         143.1916  132.3534  156.9468 C.ar    1  UNL1        0.0013
     33 C         143.4452  133.7839  157.3197 C.ar    1  UNL1        0.0147
@<TRIPOS>BOND
     1    24    25    1
     2    25    12    1
     3    12    13   ar
     4    13    14   ar
     5    14    10    1
     6    10    11    2
     7    11     1    1
     8     1     2   ar
     9     2     3   ar
    10     3     4    1
    11     3     5   ar
    12     5     6   ar
    13     6    26    1
    14    26    28    1
    15    28    29   ar
    16    29    30   ar
    17    30    31   ar
    18    31    32   ar
    19    32    33   ar
    20     6     7   ar
    21    14    15   ar
    22    15    16   ar
    23    16    17   ar
    24    17    18    1
    25    18    19   ar
    26    19    20   ar
    27    20    21   ar
    28    21    22    1
    29    21    23   ar
    30    17    12   ar
    31    23    18   ar
    32     7     1   ar
    33    33    28   ar
    34     4     8    1
    35     4     9    1
    36    26    27    1
@<TRIPOS>MOLECULE
*****
 33 36 0 0 0
SMALL
GASTEIGER

@<TRIPOS>ATOM
      1 C         142.9393  138.7510  158.9200 C.ar    1  UNL1        0.1681
      2 N         144.0118  139.5615  158.2545 N.ar    1  UNL1       -0.1948
      3 C         144.4181  139.2536  156.8437 C.ar    1  UNL1        0.2174
      4 N         145.4905  140.0642  156.1783 N.pl3   1  UNL1       -0.3273
      5 N         143.7519  138.1352  156.0985 N.ar    1  UNL1       -0.1810
      6 C         142.6795  137.3247  156.7640 C.ar    1  UNL1        0.2244
      7 N         142.2732  137.6325  158.1747 N.ar    1  UNL1       -0.1943
      8 H         145.9277  140.7982  156.6674 H       1  UNL1        0.1452
      9 H         145.7572  139.8621  155.2524 H       1  UNL1        0.1452
     10 C         143.1672  138.3204  161.4720 C.2     1  UNL1        0.0032
     11 C         142.5330  139.0588  160.3307 C.2     1  UNL1        0.0389
     12 C         142.9152  140.1409  164.9894 C.ar    1  UNL1        0.1547
     13 C         143.3215  139.8329  163.5787 C.ar    1  UNL1        0.0384
     14 C         142.7608  138.6283  162.8827 C.ar    1  UNL1        0.0032
     15 C         141.7939  137.7315  163.5974 C.ar    1  UNL1        0.0017
     16 C         141.3876  138.0394  165.0081 C.ar    1  UNL1        0.0206
     17 C         141.9482  139.2441  165.7041 C.ar    1  UNL1        0.0994
     18 N         141.5418  139.5520  167.1148 N.ar    1  UNL1       -0.2839
     19 C         142.4292  139.4860  168.3223 C.ar    1  UNL1        0.1826
     20 N         141.6126  139.8731  169.5195 N.ar    1  UNL1       -0.2280
     21 C         140.2204  140.1784  169.0518 C.ar    1  UNL1        0.0786
     22 C         139.0733  140.6070  169.9182 C.3     1  UNL1        0.0538
     23 C         140.1767  139.9800  167.5657 C.ar    1  UNL1        0.0963
     24 C         143.1605  142.7206  165.1758 C.3     1  UNL1        0.2525
     25 O         143.4758  141.3455  165.6854 O.3     1  UNL1       -0.4700
     26 N         142.0133  136.2063  156.0188 N.pl3   1  UNL1       -0.2824
     27 H         141.2932  136.4027  155.3769 H       1  UNL1        0.1551
     28 C         142.4444  134.7885  156.2515 C.ar    1  UNL1        0.0505
     29 C         141.7347  133.6650  155.5558 C.ar    1  UNL1        0.0147
     30 C         142.1658  132.2472  155.7885 C.ar    1  UNL1        0.0013
     31 C         143.3065  131.9530  156.7170 C.ar    1  UNL1        0.0001
     32 C         144.0162  133.0765  157.4127 C.ar    1  UNL1        0.0013
     33 C         143.5852  134.4943  157.1800 C.ar    1  UNL1        0.0147
@<TRIPOS>BOND
     1    24    25    1
     2    25    12    1
     3    12    13   ar
     4    13    14   ar
     5    14    10    1
     6    10    11    2
     7    11     1    1
     8     1     2   ar
     9     2     3   ar
    10     3     4    1
    11     3     5   ar
    12     5     6   ar
    13     6    26    1
    14    26    28    1
    15    28    29   ar
    16    29    30   ar
    17    30    31   ar
    18    31    32   ar
    19    32    33   ar
    20     6     7   ar
    21    14    15   ar
    22    15    16   ar
    23    16    17   ar
    24    17    18    1
    25    18    19   ar
    26    19    20   ar
    27    20    21   ar
    28    21    22    1
    29    21    23   ar
    30    17    12   ar
    31    23    18   ar
    32     7     1   ar
    33    33    28   ar
    34     4     8    1
    35     4     9    1
    36    26    27    1
@<TRIPOS>MOLECULE
*****
 33 36 0 0 0
SMALL
GASTEIGER

@<TRIPOS>ATOM
      1 C         142.3032  138.1252  158.2202 C.ar    1  UNL1        0.1681
      2 N         141.9363  139.2073  157.2483 N.ar    1  UNL1       -0.1948
      3 C         142.3052  139.0718  155.8007 C.ar    1  UNL1        0.2174
      4 N         141.9382  140.1538  154.8288 N.pl3   1  UNL1       -0.3273
      5 N         143.0410  137.8543  155.3250 N.ar    1  UNL1       -0.1810
      6 C         143.4079  136.7723  156.2969 C.ar    1  UNL1        0.2244
      7 N         143.0390  136.9077  157.7444 N.ar    1  UNL1       -0.1943
      8 H         141.4553  140.9529  155.1410 H       1  UNL1        0.1452
      9 H         142.1803  140.0649  153.8787 H       1  UNL1        0.1452
     10 C         140.5295  138.6180  160.0536 C.2     1  UNL1        0.0032
     11 C         141.9343  138.2607  159.6678 C.2     1  UNL1        0.0389
     12 C         139.0710  140.1141  163.4277 C.ar    1  UNL1        0.1547
     13 C         139.4399  139.9787  161.9801 C.ar    1  UNL1        0.0384
     14 C         140.1607  138.7535  161.5012 C.ar    1  UNL1        0.0032
     15 C         140.5127  137.6637  162.4700 C.ar    1  UNL1        0.0017
     16 C         140.1438  137.7992  163.9176 C.ar    1  UNL1        0.0206
     17 C         139.4230  139.0244  164.3964 C.ar    1  UNL1        0.0994
     18 N         139.0542  139.1598  165.8441 N.ar    1  UNL1       -0.2839
     19 C         137.9116  138.4721  166.5309 C.ar    1  UNL1        0.1826
     20 N         137.9145  138.8940  167.9704 N.ar    1  UNL1       -0.2280
     21 C         139.0588  139.8424  168.1732 C.ar    1  UNL1        0.0786
     22 C         139.4330  140.5094  169.4635 C.3     1  UNL1        0.0538
     23 C         139.7632  140.0067  166.8591 C.ar    1  UNL1        0.0963
     24 C         139.0484  142.6669  163.9102 C.3     1  UNL1        0.2525
     25 O         138.3502  141.3393  163.9065 O.3     1  UNL1       -0.4700
     26 N         144.1437  135.5548  155.8212 N.pl3   1  UNL1       -0.2824
     27 H         145.0911  135.6222  155.5621 H       1  UNL1        0.1551
     28 C         143.4360  134.2347  155.7402 C.ar    1  UNL1        0.0505
     29 C         144.1900  132.9628  155.9931 C.ar    1  UNL1        0.0147
     30 C         143.4824  131.6427  155.9122 C.ar    1  UNL1        0.0013
     31 C         142.0208  131.5945  155.5784 C.ar    1  UNL1        0.0001
     32 C         141.2669  132.8663  155.3254 C.ar    1  UNL1        0.0013
     33 C         141.9745  134.1864  155.4064 C.ar    1  UNL1        0.0147
@<TRIPOS>BOND
     1    24    25    1
     2    25    12    1
     3    12    13   ar
     4    13    14   ar
     5    14    10    1
     6    10    11    2
     7    11     1    1
     8     1     2   ar
     9     2     3   ar
    10     3     4    1
    11     3     5   ar
    12     5     6   ar
    13     6    26    1
    14    26    28    1
    15    28    29   ar
    16    29    30   ar
    17    30    31   ar
    18    31    32   ar
    19    32    33   ar
    20     6     7   ar
    21    14    15   ar
    22    15    16   ar
    23    16    17   ar
    24    17    18    1
    25    18    19   ar
    26    19    20   ar
    27    20    21   ar
    28    21    22    1
    29    21    23   ar
    30    17    12   ar
    31    23    18   ar
    32     7     1   ar
    33    33    28   ar
    34     4     8    1
    35     4     9    1
    36    26    27    1
@<TRIPOS>MOLECULE
*****
 33 36 0 0 0
SMALL
GASTEIGER

@<TRIPOS>ATOM
      1 C         139.4999  139.0913  164.0672 C.ar    1  UNL1        0.1681
      2 N         138.6733  138.2891  165.0281 N.ar    1  UNL1       -0.1948
      3 C         138.3586  138.8393  166.3876 C.ar    1  UNL1        0.2174
      4 N         137.5320  138.0371  167.3484 N.pl3   1  UNL1       -0.3273
      5 N         138.8704  140.1918  166.7862 N.ar    1  UNL1       -0.1810
      6 C         139.6970  140.9940  165.8254 C.ar    1  UNL1        0.2244
      7 N         140.0117  140.4438  164.4659 N.ar    1  UNL1       -0.1943
      8 H         137.1961  137.1495  167.0868 H       1  UNL1        0.1452
      9 H         137.3254  138.3982  168.2407 H       1  UNL1        0.1452
     10 C         140.5403  139.3887  161.7052 C.2     1  UNL1        0.0032
     11 C         139.8147  138.5411  162.7078 C.2     1  UNL1        0.0389
     12 C         140.1308  138.3215  157.9047 C.ar    1  UNL1        0.1547
     13 C         139.8161  138.8718  159.2642 C.ar    1  UNL1        0.0384
     14 C         140.8550  138.8384  160.3457 C.ar    1  UNL1        0.0032
     15 C         142.2086  138.2549  160.0677 C.ar    1  UNL1        0.0017
     16 C         142.5233  137.7047  158.7083 C.ar    1  UNL1        0.0206
     17 C         141.4844  137.7380  157.6268 C.ar    1  UNL1        0.0994
     18 N         141.7991  137.1877  156.2673 N.ar    1  UNL1       -0.2839
     19 C         142.2544  137.9814  155.0786 C.ar    1  UNL1        0.1826
     20 N         142.4505  137.0314  153.9345 N.ar    1  UNL1       -0.2280
     21 C         142.1164  135.6505  154.4160 C.ar    1  UNL1        0.0786
     22 C         142.1746  134.3938  153.5992 C.3     1  UNL1        0.0538
     23 C         141.7138  135.7472  155.8577 C.ar    1  UNL1        0.0963
     24 C         138.7207  139.6580  156.1798 C.3     1  UNL1        0.2525
     25 O         139.0920  138.3549  156.8233 O.3     1  UNL1       -0.4700
     26 N         140.2088  142.3464  166.2240 N.pl3   1  UNL1       -0.2824
     27 H         140.0224  143.1298  165.6577 H       1  UNL1        0.1551
     28 C         141.0048  142.5052  167.4855 C.ar    1  UNL1        0.0505
     29 C         142.4235  142.0215  167.5430 C.ar    1  UNL1        0.0147
     30 C         143.2195  142.1803  168.8044 C.ar    1  UNL1        0.0013
     31 C         142.5968  142.8227  170.0083 C.ar    1  UNL1        0.0001
     32 C         141.1780  143.3064  169.9508 C.ar    1  UNL1        0.0013
     33 C         140.3821  143.1476  168.6894 C.ar    1  UNL1        0.0147
@<TRIPOS>BOND
     1    24    25    1
     2    25    12    1
     3    12    13   ar
     4    13    14   ar
     5    14    10    1
     6    10    11    2
     7    11     1    1
     8     1     2   ar
     9     2     3   ar
    10     3     4    1
    11     3     5   ar
    12     5     6   ar
    13     6    26    1
    14    26    28    1
    15    28    29   ar
    16    29    30   ar
    17    30    31   ar
    18    31    32   ar
    19    32    33   ar
    20     6     7   ar
    21    14    15   ar
    22    15    16   ar
    23    16    17   ar
    24    17    18    1
    25    18    19   ar
    26    19    20   ar
    27    20    21   ar
    28    21    22    1
    29    21    23   ar
    30    17    12   ar
    31    23    18   ar
    32     7     1   ar
    33    33    28   ar
    34     4     8    1
    35     4     9    1
    36    26    27    1
@<TRIPOS>MOLECULE
*****
 33 36 0 0 0
SMALL
GASTEIGER

@<TRIPOS>ATOM
      1 C         137.8383  140.2524  158.2409 C.ar    1  UNL1        0.1681
      2 N         138.7893  139.5462  157.3206 N.ar    1  UNL1       -0.1948
      3 C         138.4679  139.4231  155.8605 C.ar    1  UNL1        0.2174
      4 N         139.4189  138.7169  154.9402 N.pl3   1  UNL1       -0.3273
      5 N         137.1956  140.0062  155.3209 N.ar    1  UNL1       -0.1810
      6 C         136.2447  140.7124  156.2412 C.ar    1  UNL1        0.2244
      7 N         136.5660  140.8355  157.7011 N.ar    1  UNL1       -0.1943
      8 H         140.2539  138.3342  155.2945 H       1  UNL1        0.1452
      9 H         139.2080  138.6361  153.9820 H       1  UNL1        0.1452
     10 C         138.0813  139.1701  160.5903 C.2     1  UNL1        0.0032
     11 C         138.1596  140.3754  159.7009 C.2     1  UNL1        0.0389
     12 C         138.4639  140.7070  164.2292 C.ar    1  UNL1        0.1547
     13 C         138.1426  140.5838  162.7692 C.ar    1  UNL1        0.0384
     14 C         138.4027  139.2932  162.0503 C.ar    1  UNL1        0.0032
     15 C         138.9840  138.1259  162.7914 C.ar    1  UNL1        0.0017
     16 C         139.3053  138.2490  164.2514 C.ar    1  UNL1        0.0206
     17 C         139.0452  139.5396  164.9703 C.ar    1  UNL1        0.0994
     18 N         139.3665  139.6628  166.4303 N.ar    1  UNL1       -0.2839
     19 C         138.4112  139.4404  167.5651 C.ar    1  UNL1        0.1826
     20 N         139.1538  139.6701  168.8480 N.ar    1  UNL1       -0.2280
     21 C         140.5682  140.0345  168.5060 C.ar    1  UNL1        0.0786
     22 C         141.6595  140.3483  169.4861 C.3     1  UNL1        0.0538
     23 C         140.6996  140.0299  167.0118 C.ar    1  UNL1        0.0963
     24 C         138.9103  143.2498  164.5206 C.3     1  UNL1        0.2525
     25 O         138.2039  141.9976  164.9481 O.3     1  UNL1       -0.4700
     26 N         134.9724  141.2955  155.7015 N.pl3   1  UNL1       -0.2824
     27 H         134.9974  142.1228  155.1684 H       1  UNL1        0.1551
     28 C         133.6621  140.6181  155.9741 C.ar    1  UNL1        0.0505
     29 C         132.3757  141.3594  155.7598 C.ar    1  UNL1        0.0147
     30 C         131.0654  140.6821  156.0323 C.ar    1  UNL1        0.0013
     31 C         131.0414  139.2636  156.5193 C.ar    1  UNL1        0.0001
     32 C         132.3278  138.5223  156.7336 C.ar    1  UNL1        0.0013
     33 C         133.6381  139.1996  156.4610 C.ar    1  UNL1        0.0147
@<TRIPOS>BOND
     1    24    25    1
     2    25    12    1
     3    12    13   ar
     4    13    14   ar
     5    14    10    1
     6    10    11    2
     7    11     1    1
     8     1     2   ar
     9     2     3   ar
    10     3     4    1
    11     3     5   ar
    12     5     6   ar
    13     6    26    1
    14    26    28    1
    15    28    29   ar
    16    29    30   ar
    17    30    31   ar
    18    31    32   ar
    19    32    33   ar
    20     6     7   ar
    21    14    15   ar
    22    15    16   ar
    23    16    17   ar
    24    17    18    1
    25    18    19   ar
    26    19    20   ar
    27    20    21   ar
    28    21    22    1
    29    21    23   ar
    30    17    12   ar
    31    23    18   ar
    32     7     1   ar
    33    33    28   ar
    34     4     8    1
    35     4     9    1
    36    26    27    1
@<TRIPOS>MOLECULE
*****
 33 36 0 0 0
SMALL
GASTEIGER

@<TRIPOS>ATOM
      1 C         138.2174  141.6061  158.5462 C.ar    1  UNL1        0.1681
      2 N         138.6798  142.7920  157.7525 N.ar    1  UNL1       -0.1948
      3 C         138.1627  143.0113  156.3616 C.ar    1  UNL1        0.2174
      4 N         138.6251  144.1971  155.5678 N.pl3   1  UNL1       -0.3273
      5 N         137.1833  142.0448  155.7644 N.ar    1  UNL1       -0.1810
      6 C         136.7209  140.8589  156.5582 C.ar    1  UNL1        0.2244
      7 N         137.2379  140.6396  157.9490 N.ar    1  UNL1       -0.1943
      8 H         139.2680  144.8314  155.9598 H       1  UNL1        0.1452
      9 H         138.2858  144.3410  154.6549 H       1  UNL1        0.1452
     10 C         137.7787  141.0888  161.0542 C.2     1  UNL1        0.0032
     11 C         138.7344  141.3868  159.9371 C.2     1  UNL1        0.0389
     12 C         139.6676  139.4553  164.1386 C.ar    1  UNL1        0.1547
     13 C         139.1506  139.6746  162.7477 C.ar    1  UNL1        0.0384
     14 C         138.2957  140.8695  162.4451 C.ar    1  UNL1        0.0032
     15 C         137.9580  141.8450  163.5333 C.ar    1  UNL1        0.0017
     16 C         138.4751  141.6256  164.9242 C.ar    1  UNL1        0.0206
     17 C         139.3299  140.4308  165.2268 C.ar    1  UNL1        0.0994
     18 N         139.8469  140.2114  166.6177 N.ar    1  UNL1       -0.2839
     19 C         139.0254  139.8333  167.8144 C.ar    1  UNL1        0.1826
     20 N         139.9470  139.7199  168.9924 N.ar    1  UNL1       -0.2280
     21 C         141.3383  140.0279  168.5237 C.ar    1  UNL1        0.0786
     22 C         142.5744  140.0316  169.3735 C.3     1  UNL1        0.0538
     23 C         141.2764  140.3317  167.0561 C.ar    1  UNL1        0.0963
     24 C         140.8697  137.2911  163.3505 C.3     1  UNL1        0.2525
     25 O         140.5224  138.2604  164.4412 O.3     1  UNL1       -0.4700
     26 N         135.7415  139.8925  155.9610 N.pl3   1  UNL1       -0.2824
     27 H         136.0653  139.0842  155.5017 H       1  UNL1        0.1551
     28 C         134.2686  140.1575  156.0638 C.ar    1  UNL1        0.0505
     29 C         133.4384  139.4024  157.0591 C.ar    1  UNL1        0.0147
     30 C         131.9656  139.6674  157.1619 C.ar    1  UNL1        0.0013
     31 C         131.3230  140.6874  156.2694 C.ar    1  UNL1        0.0001
     32 C         132.1533  141.4425  155.2741 C.ar    1  UNL1        0.0013
     33 C         133.6261  141.1776  155.1713 C.ar    1  UNL1        0.0147
@<TRIPOS>BOND
     1    24    25    1
     2    25    12    1
     3    12    13   ar
     4    13    14   ar
     5    14    10    1
     6    10    11    2
     7    11     1    1
     8     1     2   ar
     9     2     3   ar
    10     3     4    1
    11     3     5   ar
    12     5     6   ar
    13     6    26    1
    14    26    28    1
    15    28    29   ar
    16    29    30   ar
    17    30    31   ar
    18    31    32   ar
    19    32    33   ar
    20     6     7   ar
    21    14    15   ar
    22    15    16   ar
    23    16    17   ar
    24    17    18    1
    25    18    19   ar
    26    19    20   ar
    27    20    21   ar
    28    21    22    1
    29    21    23   ar
    30    17    12   ar
    31    23    18   ar
    32     7     1   ar
    33    33    28   ar
    34     4     8    1
    35     4     9    1
    36    26    27    1
@<TRIPOS>MOLECULE
*****
 33 36 0 0 0
SMALL
GASTEIGER

@<TRIPOS>ATOM
      1 C         143.6209  139.4860  158.2805 C.ar    1  UNL1        0.1681
      2 N         144.7541  140.2893  157.7141 N.ar    1  UNL1       -0.1948
      3 C         145.1729  140.0929  156.2871 C.ar    1  UNL1        0.2174
      4 N         146.3060  140.8962  155.7208 N.pl3   1  UNL1       -0.3273
      5 N         144.4585  139.0933  155.4266 N.ar    1  UNL1       -0.1810
      6 C         143.3254  138.2900  155.9930 C.ar    1  UNL1        0.2244
      7 N         142.9066  138.4864  157.4199 N.ar    1  UNL1       -0.1943
      8 H         146.7748  141.5523  156.2856 H       1  UNL1        0.1452
      9 H         146.5808  140.7674  154.7842 H       1  UNL1        0.1452
     10 C         143.6815  138.7349  160.7668 C.2     1  UNL1        0.0032
     11 C         143.2021  139.6823  159.7073 C.2     1  UNL1        0.0389
     12 C         141.7991  138.2368  164.2250 C.ar    1  UNL1        0.1547
     13 C         142.2180  138.0405  162.7981 C.ar    1  UNL1        0.0384
     14 C         143.2627  138.9312  162.1938 C.ar    1  UNL1        0.0032
     15 C         143.8884  140.0183  163.0163 C.ar    1  UNL1        0.0017
     16 C         143.4696  140.2147  164.4432 C.ar    1  UNL1        0.0206
     17 C         142.4249  139.3239  165.0475 C.ar    1  UNL1        0.0994
     18 N         142.0061  139.5203  166.4744 N.ar    1  UNL1       -0.2839
     19 C         142.8118  139.1604  167.6873 C.ar    1  UNL1        0.1826
     20 N         142.0117  139.5287  168.9014 N.ar    1  UNL1       -0.2280
     21 C         140.7113  140.1162  168.4389 C.ar    1  UNL1        0.0786
     22 C         139.6081  140.6204  169.3214 C.3     1  UNL1        0.0538
     23 C         140.7079  140.1110  166.9389 C.ar    1  UNL1        0.0963
     24 C         139.3000  137.6453  164.6178 C.3     1  UNL1        0.2525
     25 O         140.7545  137.3460  164.8293 O.3     1  UNL1       -0.4700
     26 N         142.6111  137.2904  155.1325 N.pl3   1  UNL1       -0.2824
     27 H         142.1251  137.5896  154.3303 H       1  UNL1        0.1551
     28 C         142.6373  135.8349  155.4942 C.ar    1  UNL1        0.0505
     29 C         143.8032  135.2710  156.2510 C.ar    1  UNL1        0.0147
     30 C         143.8295  133.8155  156.6127 C.ar    1  UNL1        0.0013
     31 C         142.6898  132.9239  156.2176 C.ar    1  UNL1        0.0001
     32 C         141.5238  133.4878  155.4609 C.ar    1  UNL1        0.0013
     33 C         141.4976  134.9433  155.0992 C.ar    1  UNL1        0.0147
@<TRIPOS>BOND
     1    24    25    1
     2    25    12    1
     3    12    13   ar
     4    13    14   ar
     5    14    10    1
     6    10    11    2
     7    11     1    1
     8     1     2   ar
     9     2     3   ar
    10     3     4    1
    11     3     5   ar
    12     5     6   ar
    13     6    26    1
    14    26    28    1
    15    28    29   ar
    16    29    30   ar
    17    30    31   ar
    18    31    32   ar
    19    32    33   ar
    20     6     7   ar
    21    14    15   ar
    22    15    16   ar
    23    16    17   ar
    24    17    18    1
    25    18    19   ar
    26    19    20   ar
    27    20    21   ar
    28    21    22    1
    29    21    23   ar
    30    17    12   ar
    31    23    18   ar
    32     7     1   ar
    33    33    28   ar
    34     4     8    1
    35     4     9    1
    36    26    27    1
