@<TRIPOS>MOLECULE
*****
 26 29 0 0 0
SMALL
GASTEIGER

@<TRIPOS>ATOM
      1 C         142.6762  142.1376  165.6045 C.3     1  UNL1        0.1686
      2 C         144.0216  142.6709  165.2104 C.3     1  UNL1        0.0595
      3 C         144.1215  143.9277  164.3977 C.3     1  UNL1        0.0610
      4 C         143.7542  145.1570  163.6205 C.3     1  UNL1        0.0175
      5 C         142.2583  145.2667  163.6064 C.3     1  UNL1        0.0175
      6 C         141.7010  144.1053  164.3750 C.3     1  UNL1        0.0610
      7 C         141.4306  142.8611  165.1860 C.3     1  UNL1        0.0595
      8 N         142.8526  143.2778  164.8640 N.3     1  UNL1       -0.2763
      9 C         142.7527  142.0210  165.6767 C.3     1  UNL1        0.0574
     10 C         142.7478  142.0949  167.1749 C.3     1  UNL1        0.0160
     11 C         142.6480  140.8381  167.9874 C.3     1  UNL1        0.0014
     12 C         142.5531  139.5072  167.3019 C.3     1  UNL1        0.0001
     13 C         142.5580  139.4333  165.8038 C.3     1  UNL1        0.0014
     14 C         142.6578  140.6902  164.9911 C.3     1  UNL1        0.0160
     15 O         142.5763  140.8807  166.4172 O.3     1  UNL1       -0.4791
     16 C         139.3352  140.1516  168.5882 C.ar    1  UNL1        0.0561
     17 C         138.5417  139.3052  167.6375 C.ar    1  UNL1        0.0047
     18 C         139.0931  138.9839  166.2800 C.ar    1  UNL1        0.0033
     19 C         140.4380  139.5090  165.8733 C.ar    1  UNL1        0.0369
     20 C         141.2314  140.3555  166.8240 C.ar    1  UNL1        0.1385
     21 C         140.6801  140.6768  168.1814 C.ar    1  UNL1        0.0414
     22 N         139.2406  141.7055  170.6682 N.am    1  UNL1       -0.3253
     23 C         138.7838  140.4729  169.9456 C.2     1  UNL1        0.2428
     24 O         137.7755  139.5616  170.5805 O.2     1  UNL1       -0.2704
     25 H         138.8786  141.9164  171.5592 H       1  UNL1        0.1453
     26 H         139.9023  142.3036  170.2516 H       1  UNL1        0.1453
@<TRIPOS>BOND
     1    22    23   am
     2    23    24    2
     3    23    16    1
     4    16    17   ar
     5    17    18   ar
     6    18    19   ar
     7    19    20   ar
     8    20    15    1
     9     1    15    1
    10     1     2    1
    11     3     2    1
    12     3     4    1
    13     4     5    1
    14     6     5    1
    15     6     7    1
    16     6     8    1
    17     8     9    1
    18     9    10    1
    19    10    11    1
    20    11    12    1
    21    12    13    1
    22    13    14    1
    23    20    21   ar
    24    21    16   ar
    25     7     1    1
    26    14     9    1
    27     8     3    1
    28    22    25    1
    29    22    26    1
@<TRIPOS>MOLECULE
*****
 26 29 0 0 0
SMALL
GASTEIGER

@<TRIPOS>ATOM
      1 C         140.2190  141.7488  165.2150 C.3     1  UNL1        0.1686
      2 C         139.6399  141.2903  163.9095 C.3     1  UNL1        0.0595
      3 C         138.6751  142.1673  163.1678 C.3     1  UNL1        0.0610
      4 C         137.7921  143.3213  162.7959 C.3     1  UNL1        0.0175
      5 C         137.9037  144.3570  163.8752 C.3     1  UNL1        0.0175
      6 C         138.8558  143.8430  164.9142 C.3     1  UNL1        0.0610
      7 C         139.8333  143.0842  165.7789 C.3     1  UNL1        0.0595
      8 N         139.3326  142.4897  164.4770 N.3     1  UNL1       -0.2763
      9 C         140.2974  141.6127  165.2186 C.3     1  UNL1        0.0574
     10 C         141.7734  141.7717  165.0035 C.3     1  UNL1        0.0160
     11 C         142.7381  140.8947  165.7452 C.3     1  UNL1        0.0014
     12 C         142.2269  139.8587  166.7021 C.3     1  UNL1        0.0001
     13 C         140.7510  139.6998  166.9172 C.3     1  UNL1        0.0014
     14 C         139.7862  140.5768  166.1755 C.3     1  UNL1        0.0160
     15 O         141.1839  140.8718  165.9568 O.3     1  UNL1       -0.4791
     16 C         141.4141  141.3631  169.8881 C.ar    1  UNL1        0.0561
     17 C         142.7043  142.1195  170.0042 C.ar    1  UNL1        0.0047
     18 C         143.4876  142.4599  168.7711 C.ar    1  UNL1        0.0033
     19 C         142.9808  142.0441  167.4221 C.ar    1  UNL1        0.0369
     20 C         141.6907  141.2877  167.3060 C.ar    1  UNL1        0.1385
     21 C         140.9073  140.9472  168.5390 C.ar    1  UNL1        0.0414
     22 N         139.9977  139.6697  171.2579 N.am    1  UNL1       -0.3253
     23 C         140.6308  141.0227  171.1212 C.2     1  UNL1        0.2428
     24 O         140.4806  142.0353  172.2177 O.2     1  UNL1       -0.2704
     25 H         139.4836  139.4462  172.0672 H       1  UNL1        0.1453
     26 H         140.0964  139.0051  170.5382 H       1  UNL1        0.1453
@<TRIPOS>BOND
     1    22    23   am
     2    23    24    2
     3    23    16    1
     4    16    17   ar
     5    17    18   ar
     6    18    19   ar
     7    19    20   ar
     8    20    15    1
     9     1    15    1
    10     1     2    1
    11     3     2    1
    12     3     4    1
    13     4     5    1
    14     6     5    1
    15     6     7    1
    16     6     8    1
    17     8     9    1
    18     9    10    1
    19    10    11    1
    20    11    12    1
    21    12    13    1
    22    13    14    1
    23    20    21   ar
    24    21    16   ar
    25     7     1    1
    26    14     9    1
    27     8     3    1
    28    22    25    1
    29    22    26    1
@<TRIPOS>MOLECULE
*****
 26 29 0 0 0
SMALL
GASTEIGER

@<TRIPOS>ATOM
      1 C         140.5128  142.6889  163.8273 C.3     1  UNL1        0.1686
      2 C         140.6743  144.1100  163.3754 C.3     1  UNL1        0.0595
      3 C         141.9805  144.8183  163.5803 C.3     1  UNL1        0.0610
      4 C         143.3983  145.1113  163.9730 C.3     1  UNL1        0.0175
      5 C         143.9659  143.8792  164.6131 C.3     1  UNL1        0.0175
      6 C         142.8990  142.8248  164.6161 C.3     1  UNL1        0.0610
      7 C         141.6575  141.9760  164.4842 C.3     1  UNL1        0.0595
      8 N         141.6720  143.4052  163.9778 N.3     1  UNL1       -0.2763
      9 C         140.3657  142.6969  163.7728 C.3     1  UNL1        0.0574
     10 C         140.1215  141.9241  162.5107 C.3     1  UNL1        0.0160
     11 C         138.8153  141.2158  162.3058 C.3     1  UNL1        0.0014
     12 C         137.7531  141.2804  163.3631 C.3     1  UNL1        0.0001
     13 C         137.9973  142.0532  164.6252 C.3     1  UNL1        0.0014
     14 C         139.3037  142.7615  164.8301 C.3     1  UNL1        0.0160
     15 O         139.2065  141.9805  163.6224 O.3     1  UNL1       -0.4791
     16 C         138.3747  138.8334  165.8926 C.ar    1  UNL1        0.0561
     17 C         138.7278  137.7113  164.9620 C.ar    1  UNL1        0.0047
     18 C         139.2405  138.0123  163.5848 C.ar    1  UNL1        0.0033
     19 C         139.4000  139.4353  163.1383 C.ar    1  UNL1        0.0369
     20 C         139.0469  140.5574  164.0690 C.ar    1  UNL1        0.1385
     21 C         138.5342  140.2565  165.4461 C.ar    1  UNL1        0.0414
     22 N         136.9018  137.3997  167.4816 N.am    1  UNL1       -0.3253
     23 C         137.8620  138.5325  167.2697 C.2     1  UNL1        0.2428
     24 O         138.3096  139.3642  168.4351 O.2     1  UNL1       -0.2704
     25 H         136.5653  137.2022  168.3855 H       1  UNL1        0.1453
     26 H         136.6080  136.8538  166.7168 H       1  UNL1        0.1453
@<TRIPOS>BOND
     1    22    23   am
     2    23    24    2
     3    23    16    1
     4    16    17   ar
     5    17    18   ar
     6    18    19   ar
     7    19    20   ar
     8    20    15    1
     9     1    15    1
    10     1     2    1
    11     3     2    1
    12     3     4    1
    13     4     5    1
    14     6     5    1
    15     6     7    1
    16     6     8    1
    17     8     9    1
    18     9    10    1
    19    10    11    1
    20    11    12    1
    21    12    13    1
    22    13    14    1
    23    20    21   ar
    24    21    16   ar
    25     7     1    1
    26    14     9    1
    27     8     3    1
    28    22    25    1
    29    22    26    1
@<TRIPOS>MOLECULE
*****
 26 29 0 0 0
SMALL
GASTEIGER

@<TRIPOS>ATOM
      1 C         142.7455  142.2225  166.0267 C.3     1  UNL1        0.1686
      2 C         144.0676  142.6606  165.4698 C.3     1  UNL1        0.0595
      3 C         144.1259  143.7676  164.4592 C.3     1  UNL1        0.0610
      4 C         143.7202  144.8615  163.5166 C.3     1  UNL1        0.0175
      5 C         142.2273  144.9947  163.5762 C.3     1  UNL1        0.0175
      6 C         141.7104  143.9831  164.5557 C.3     1  UNL1        0.0610
      7 C         141.4818  142.8913  165.5730 C.3     1  UNL1        0.0595
      8 N         142.8838  143.2247  165.1015 N.3     1  UNL1       -0.2763
      9 C         142.8255  142.1177  166.1120 C.3     1  UNL1        0.0574
     10 C         142.9996  142.4234  167.5702 C.3     1  UNL1        0.0160
     11 C         142.9412  141.3164  168.5807 C.3     1  UNL1        0.0014
     12 C         142.7087  139.9037  168.1330 C.3     1  UNL1        0.0001
     13 C         142.5346  139.5980  166.6749 C.3     1  UNL1        0.0014
     14 C         142.5930  140.7051  165.6644 C.3     1  UNL1        0.0160
     15 O         142.6871  141.1155  167.0373 O.3     1  UNL1       -0.4791
     16 C         139.0842  139.5464  167.5914 C.ar    1  UNL1        0.0561
     17 C         138.7693  140.0401  168.9723 C.ar    1  UNL1        0.0047
     18 C         139.7604  140.8922  169.7083 C.ar    1  UNL1        0.0033
     19 C         141.0663  141.2506  169.0633 C.ar    1  UNL1        0.0369
     20 C         141.3811  140.7570  167.6823 C.ar    1  UNL1        0.1385
     21 C         140.3901  139.9049  166.9463 C.ar    1  UNL1        0.0414
     22 N         137.1061  137.8623  167.6193 N.am    1  UNL1       -0.3253
     23 C         138.0931  138.6943  166.8554 C.2     1  UNL1        0.2428
     24 O         138.0891  138.6741  165.3555 O.2     1  UNL1       -0.2704
     25 H         136.4556  137.3030  167.1363 H       1  UNL1        0.1453
     26 H         137.1087  137.8755  168.6037 H       1  UNL1        0.1453
@<TRIPOS>BOND
     1    22    23   am
     2    23    24    2
     3    23    16    1
     4    16    17   ar
     5    17    18   ar
     6    18    19   ar
     7    19    20   ar
     8    20    15    1
     9     1    15    1
    10     1     2    1
    11     3     2    1
    12     3     4    1
    13     4     5    1
    14     6     5    1
    15     6     7    1
    16     6     8    1
    17     8     9    1
    18     9    10    1
    19    10    11    1
    20    11    12    1
    21    12    13    1
    22    13    14    1
    23    20    21   ar
    24    21    16   ar
    25     7     1    1
    26    14     9    1
    27     8     3    1
    28    22    25    1
    29    22    26    1
@<TRIPOS>MOLECULE
*****
 26 29 0 0 0
SMALL
GASTEIGER

@<TRIPOS>ATOM
      1 C         142.7309  142.0011  165.7967 C.3     1  UNL1        0.1686
      2 C         143.7122  143.0230  165.3041 C.3     1  UNL1        0.0595
      3 C         144.8817  142.5972  164.4669 C.3     1  UNL1        0.0610
      4 C         145.8525  141.7517  163.6970 C.3     1  UNL1        0.0175
      5 C         145.3945  140.3258  163.7825 C.3     1  UNL1        0.0175
      6 C         144.1407  140.2902  164.6052 C.3     1  UNL1        0.0610
      7 C         142.9190  140.5534  165.4521 C.3     1  UNL1        0.0595
      8 N         143.8238  141.6939  165.0281 N.3     1  UNL1       -0.2763
      9 C         142.6543  142.1198  165.8654 C.3     1  UNL1        0.0574
     10 C         141.3909  142.5881  165.2062 C.3     1  UNL1        0.0160
     11 C         140.2215  143.0138  166.0434 C.3     1  UNL1        0.0014
     12 C         140.3154  142.9714  167.5399 C.3     1  UNL1        0.0001
     13 C         141.5787  142.5031  168.1991 C.3     1  UNL1        0.0014
     14 C         142.7482  142.0773  167.3618 C.3     1  UNL1        0.0160
     15 O         141.5613  142.4269  166.6340 O.3     1  UNL1       -0.4791
     16 C         139.2044  140.1405  168.8626 C.ar    1  UNL1        0.0561
     17 C         138.4198  139.4247  167.8034 C.ar    1  UNL1        0.0047
     18 C         138.6824  139.7096  166.3543 C.ar    1  UNL1        0.0033
     19 C         139.7296  140.7103  165.9645 C.ar    1  UNL1        0.0369
     20 C         140.5141  141.4261  167.0238 C.ar    1  UNL1        0.1385
     21 C         140.2516  141.1412  168.4728 C.ar    1  UNL1        0.0414
     22 N         140.0644  139.9208  171.3044 N.am    1  UNL1       -0.3253
     23 C         138.9417  139.8555  170.3117 C.2     1  UNL1        0.2428
     24 O         137.5564  139.5053  170.7681 O.2     1  UNL1       -0.2704
     25 H         139.8920  139.7338  172.2555 H       1  UNL1        0.1453
     26 H         140.9736  140.1507  171.0048 H       1  UNL1        0.1453
@<TRIPOS>BOND
     1    22    23   am
     2    23    24    2
     3    23    16    1
     4    16    17   ar
     5    17    18   ar
     6    18    19   ar
     7    19    20   ar
     8    20    15    1
     9     1    15    1
    10     1     2    1
    11     3     2    1
    12     3     4    1
    13     4     5    1
    14     6     5    1
    15     6     7    1
    16     6     8    1
    17     8     9    1
    18     9    10    1
    19    10    11    1
    20    11    12    1
    21    12    13    1
    22    13    14    1
    23    20    21   ar
    24    21    16   ar
    25     7     1    1
    26    14     9    1
    27     8     3    1
    28    22    25    1
    29    22    26    1
@<TRIPOS>MOLECULE
*****
 26 29 0 0 0
SMALL
GASTEIGER

@<TRIPOS>ATOM
      1 C         139.2528  141.2007  164.6215 C.3     1  UNL1        0.1686
      2 C         138.3903  141.2749  163.3965 C.3     1  UNL1        0.0595
      3 C         138.0090  142.6094  162.8275 C.3     1  UNL1        0.0610
      4 C         137.8861  144.0901  162.6219 C.3     1  UNL1        0.0175
      5 C         138.6618  144.7748  163.7079 C.3     1  UNL1        0.0175
      6 C         139.2642  143.7173  164.5847 C.3     1  UNL1        0.0610
      7 C         139.7340  142.4609  165.2775 C.3     1  UNL1        0.0595
      8 N         138.8608  142.3789  164.0406 N.3     1  UNL1       -0.2763
      9 C         139.2421  141.0445  164.6096 C.3     1  UNL1        0.0574
     10 C         138.3158  140.3405  165.5565 C.3     1  UNL1        0.0160
     11 C         138.6972  139.0061  166.1254 C.3     1  UNL1        0.0014
     12 C         140.0048  138.3755  165.7476 C.3     1  UNL1        0.0001
     13 C         140.9310  139.0794  164.8007 C.3     1  UNL1        0.0014
     14 C         140.5496  140.4140  164.2317 C.3     1  UNL1        0.0160
     15 O         139.6342  139.8662  165.1906 O.3     1  UNL1       -0.4791
     16 C         140.4661  139.8939  169.0709 C.ar    1  UNL1        0.0561
     17 C         141.9444  139.6413  169.0457 C.ar    1  UNL1        0.0047
     18 C         142.6527  139.4637  167.7354 C.ar    1  UNL1        0.0033
     19 C         141.8826  139.5386  166.4504 C.ar    1  UNL1        0.0369
     20 C         140.4043  139.7912  166.4757 C.ar    1  UNL1        0.1385
     21 C         139.6960  139.9689  167.7858 C.ar    1  UNL1        0.0414
     22 N         140.5414  140.3887  171.6203 N.am    1  UNL1       -0.3253
     23 C         139.7579  140.0716  170.3812 C.2     1  UNL1        0.2428
     24 O         138.2660  139.9321  170.4523 O.2     1  UNL1       -0.2704
     25 H         140.0766  140.5053  172.4803 H       1  UNL1        0.1453
     26 H         141.5205  140.4802  171.5737 H       1  UNL1        0.1453
@<TRIPOS>BOND
     1    22    23   am
     2    23    24    2
     3    23    16    1
     4    16    17   ar
     5    17    18   ar
     6    18    19   ar
     7    19    20   ar
     8    20    15    1
     9     1    15    1
    10     1     2    1
    11     3     2    1
    12     3     4    1
    13     4     5    1
    14     6     5    1
    15     6     7    1
    16     6     8    1
    17     8     9    1
    18     9    10    1
    19    10    11    1
    20    11    12    1
    21    12    13    1
    22    13    14    1
    23    20    21   ar
    24    21    16   ar
    25     7     1    1
    26    14     9    1
    27     8     3    1
    28    22    25    1
    29    22    26    1
@<TRIPOS>MOLECULE
*****
 26 29 0 0 0
SMALL
GASTEIGER

@<TRIPOS>ATOM
      1 C         142.0179  141.9961  164.5295 C.3     1  UNL1        0.1686
      2 C         142.3734  142.5020  163.1629 C.3     1  UNL1        0.0595
      3 C         143.7749  142.3534  162.6493 C.3     1  UNL1        0.0610
      4 C         145.2310  142.0050  162.5569 C.3     1  UNL1        0.0175
      5 C         145.6295  141.3350  163.8384 C.3     1  UNL1        0.0175
      6 C         144.4198  141.2693  164.7229 C.3     1  UNL1        0.0610
      7 C         143.0638  141.3416  165.3825 C.3     1  UNL1        0.0595
      8 N         143.2736  141.8987  163.9880 N.3     1  UNL1       -0.2763
      9 C         141.8721  142.0474  164.5015 C.3     1  UNL1        0.0574
     10 C         141.4792  143.2779  165.2640 C.3     1  UNL1        0.0160
     11 C         140.0778  143.4265  165.7775 C.3     1  UNL1        0.0014
     12 C         139.0690  142.3445  165.5286 C.3     1  UNL1        0.0001
     13 C         139.4618  141.1140  164.7661 C.3     1  UNL1        0.0014
     14 C         140.8634  140.9654  164.2525 C.3     1  UNL1        0.0160
     15 O         140.6163  142.1447  165.0431 O.3     1  UNL1       -0.4791
     16 C         140.0700  142.0216  168.9720 C.ar    1  UNL1        0.0561
     17 C         139.5493  140.6253  169.1422 C.ar    1  UNL1        0.0047
     18 C         139.3843  139.7354  167.9460 C.ar    1  UNL1        0.0033
     19 C         139.7399  140.2419  166.5797 C.ar    1  UNL1        0.0369
     20 C         140.2606  141.6382  166.4095 C.ar    1  UNL1        0.1385
     21 C         140.4257  142.5281  167.6056 C.ar    1  UNL1        0.0414
     22 N         140.2676  144.4013  169.9959 N.am    1  UNL1       -0.3253
     23 C         140.2350  142.9115  170.1681 C.2     1  UNL1        0.2428
     24 O         140.3675  142.3116  171.5367 O.2     1  UNL1       -0.2704
     25 H         140.3759  144.9853  170.7810 H       1  UNL1        0.1453
     26 H         140.1807  144.7950  169.0978 H       1  UNL1        0.1453
@<TRIPOS>BOND
     1    22    23   am
     2    23    24    2
     3    23    16    1
     4    16    17   ar
     5    17    18   ar
     6    18    19   ar
     7    19    20   ar
     8    20    15    1
     9     1    15    1
    10     1     2    1
    11     3     2    1
    12     3     4    1
    13     4     5    1
    14     6     5    1
    15     6     7    1
    16     6     8    1
    17     8     9    1
    18     9    10    1
    19    10    11    1
    20    11    12    1
    21    12    13    1
    22    13    14    1
    23    20    21   ar
    24    21    16   ar
    25     7     1    1
    26    14     9    1
    27     8     3    1
    28    22    25    1
    29    22    26    1
@<TRIPOS>MOLECULE
*****
 26 29 0 0 0
SMALL
GASTEIGER

@<TRIPOS>ATOM
      1 C         140.7801  142.4860  164.6876 C.3     1  UNL1        0.1686
      2 C         141.4829  142.7594  163.3910 C.3     1  UNL1        0.0595
      3 C         140.8963  143.7310  162.4103 C.3     1  UNL1        0.0610
      4 C         139.9830  144.7309  161.7652 C.3     1  UNL1        0.0175
      5 C         138.8327  144.9761  162.6962 C.3     1  UNL1        0.0175
      6 C         139.0351  144.1278  163.9167 C.3     1  UNL1        0.0610
      7 C         139.4906  143.1842  165.0035 C.3     1  UNL1        0.0595
      8 N         140.3105  143.3583  163.7400 N.3     1  UNL1       -0.2763
      9 C         140.8971  142.3867  164.7207 C.3     1  UNL1        0.0574
     10 C         141.8665  142.8641  165.7611 C.3     1  UNL1        0.0160
     11 C         142.4531  141.8925  166.7417 C.3     1  UNL1        0.0014
     12 C         142.0703  140.4433  166.6821 C.3     1  UNL1        0.0001
     13 C         141.1010  139.9659  165.6417 C.3     1  UNL1        0.0014
     14 C         140.5144  140.9376  164.6610 C.3     1  UNL1        0.0160
     15 O         141.3667  141.5143  165.6684 O.3     1  UNL1       -0.4791
     16 C         140.1023  141.9093  169.4094 C.ar    1  UNL1        0.0561
     17 C         139.2503  140.6830  169.5516 C.ar    1  UNL1        0.0047
     18 C         139.1037  139.7338  168.3994 C.ar    1  UNL1        0.0033
     19 C         139.8092  140.0109  167.1051 C.ar    1  UNL1        0.0369
     20 C         140.6612  141.2372  166.9629 C.ar    1  UNL1        0.1385
     21 C         140.8078  142.1864  168.1150 C.ar    1  UNL1        0.0414
     22 N         140.1656  144.3381  170.3297 N.am    1  UNL1       -0.3253
     23 C         140.2488  142.8584  170.5616 C.2     1  UNL1        0.2428
     24 O         140.4786  142.3280  171.9458 O.2     1  UNL1       -0.2704
     25 H         140.2618  144.9610  171.0860 H       1  UNL1        0.1453
     26 H         140.0148  144.6862  169.4213 H       1  UNL1        0.1453
@<TRIPOS>BOND
     1    22    23   am
     2    23    24    2
     3    23    16    1
     4    16    17   ar
     5    17    18   ar
     6    18    19   ar
     7    19    20   ar
     8    20    15    1
     9     1    15    1
    10     1     2    1
    11     3     2    1
    12     3     4    1
    13     4     5    1
    14     6     5    1
    15     6     7    1
    16     6     8    1
    17     8     9    1
    18     9    10    1
    19    10    11    1
    20    11    12    1
    21    12    13    1
    22    13    14    1
    23    20    21   ar
    24    21    16   ar
    25     7     1    1
    26    14     9    1
    27     8     3    1
    28    22    25    1
    29    22    26    1
@<TRIPOS>MOLECULE
*****
 26 29 0 0 0
SMALL
GASTEIGER

@<TRIPOS>ATOM
      1 C         141.0657  142.3938  164.5899 C.3     1  UNL1        0.1686
      2 C         140.9308  142.9297  163.1955 C.3     1  UNL1        0.0595
      3 C         139.6829  143.6557  162.7885 C.3     1  UNL1        0.0610
      4 C         138.3216  144.2845  162.8263 C.3     1  UNL1        0.0175
      5 C         137.7569  144.0848  164.2016 C.3     1  UNL1        0.0175
      6 C         138.7692  143.3326  165.0136 C.3     1  UNL1        0.0610
      7 C         139.9527  142.5839  165.5774 C.3     1  UNL1        0.0595
      8 N         139.9595  143.0674  164.1403 N.3     1  UNL1       -0.2763
      9 C         141.2075  142.3414  164.5473 C.3     1  UNL1        0.0574
     10 C         141.2762  140.8472  164.4353 C.3     1  UNL1        0.0160
     11 C         142.5241  140.1213  164.8423 C.3     1  UNL1        0.0014
     12 C         143.7034  140.8895  165.3612 C.3     1  UNL1        0.0001
     13 C         143.6346  142.3837  165.4732 C.3     1  UNL1        0.0014
     14 C         142.3866  143.1097  165.0662 C.3     1  UNL1        0.0160
     15 O         142.3136  141.6677  164.9970 O.3     1  UNL1       -0.4791
     16 C         143.0668  141.7508  168.8925 C.ar    1  UNL1        0.0561
     17 C         142.8409  140.3131  169.2556 C.ar    1  UNL1        0.0047
     18 C         142.4393  139.3269  168.1992 C.ar    1  UNL1        0.0033
     19 C         142.2635  139.7784  166.7797 C.ar    1  UNL1        0.0369
     20 C         142.4894  141.2162  166.4165 C.ar    1  UNL1        0.1385
     21 C         142.8910  142.2024  167.4729 C.ar    1  UNL1        0.0414
     22 N         144.9181  142.9309  170.2817 N.am    1  UNL1       -0.3253
     23 C         143.4684  142.7370  169.9490 C.2     1  UNL1        0.2428
     24 O         142.4203  143.5292  170.6728 O.2     1  UNL1       -0.2704
     25 H         145.1817  143.5782  170.9751 H       1  UNL1        0.1453
     26 H         145.6061  142.4110  169.8067 H       1  UNL1        0.1453
@<TRIPOS>BOND
     1    22    23   am
     2    23    24    2
     3    23    16    1
     4    16    17   ar
     5    17    18   ar
     6    18    19   ar
     7    19    20   ar
     8    20    15    1
     9     1    15    1
    10     1     2    1
    11     3     2    1
    12     3     4    1
    13     4     5    1
    14     6     5    1
    15     6     7    1
    16     6     8    1
    17     8     9    1
    18     9    10    1
    19    10    11    1
    20    11    12    1
    21    12    13    1
    22    13    14    1
    23    20    21   ar
    24    21    16   ar
    25     7     1    1
    26    14     9    1
    27     8     3    1
    28    22    25    1
    29    22    26    1
