@<TRIPOS>MOLECULE
*****
 38 43 0 0 0
SMALL
GASTEIGER

@<TRIPOS>ATOM
      1 C         142.2257  143.4048  158.2513 C.3     1  UNL1        0.0666
      2 S         143.4170  143.0111  159.0733 S.3     1  UNL1       -0.0756
      3 C         142.8252  140.2191  160.6558 C.3     1  UNL1        0.1340
      4 N         143.0114  141.5675  161.2861 N.ar    1  UNL1       -0.2884
      5 C         143.2835  142.8508  160.5587 C.ar    1  UNL1        0.1932
      6 N         143.3985  143.9457  161.5775 N.ar    1  UNL1       -0.1221
      7 N         143.1975  143.3391  162.9345 N.ar    1  UNL1       -0.1282
      8 C         142.9583  141.8693  162.7545 C.ar    1  UNL1        0.1668
      9 C         142.7096  140.8757  163.8504 C.ar    1  UNL1        0.0361
     10 C         142.3152  139.4687  163.5119 C.ar    1  UNL1        0.0031
     11 C         142.0665  138.4751  164.6078 C.ar    1  UNL1        0.0003
     12 C         142.2123  138.8887  166.0423 C.ar    1  UNL1        0.0047
     13 C         142.6066  140.2958  166.3809 C.ar    1  UNL1        0.0537
     14 C         142.8553  141.2893  165.2849 C.ar    1  UNL1        0.0077
     15 C         142.7524  140.7093  167.8154 C.ar    1  UNL1        0.2299
     16 N         142.6622  142.1107  168.3424 N.ar    1  UNL1       -0.2065
     17 C         142.8679  142.0615  169.8274 C.ar    1  UNL1        0.1427
     18 C         143.0852  140.6297  170.2182 C.ar    1  UNL1        0.2021
     19 O         143.0138  139.7940  168.9746 O.2     1  UNL1       -0.4314
     20 C         140.9071  142.7229  158.4672 C.3     1  UNL1        0.0294
     21 C         139.7538  143.4867  159.0473 C.3     1  UNL1        0.0730
     22 N         139.8774  144.1164  160.4031 N.3     1  UNL1       -0.2726
     23 C         140.2265  145.5484  160.6816 C.3     1  UNL1        0.0721
     24 C         140.2384  145.7417  162.1690 C.3     1  UNL1        0.0190
     25 C         139.8967  144.4292  162.8098 C.3     1  UNL1        0.0201
     26 C         139.9839  144.9183  164.2251 C.3     1  UNL1        0.0061
     27 C         139.6349  143.4863  163.9467 C.3     1  UNL1        0.0237
     28 C         139.6736  143.4247  161.7184 C.3     1  UNL1        0.0724
     29 C         139.2822  142.1152  164.4422 C.ar    1  UNL1       -0.0225
     30 C         138.8842  141.0453  163.4690 C.ar    1  UNL1       -0.0043
     31 C         138.5316  139.6742  163.9645 C.ar    1  UNL1        0.0035
     32 C         138.5768  139.3729  165.4333 C.ar    1  UNL1        0.0714
     33 C         138.9747  140.4428  166.4065 C.ar    1  UNL1        0.0035
     34 C         139.3274  141.8139  165.9109 C.ar    1  UNL1       -0.0043
     35 C         138.2241  138.0018  165.9288 C.3     1  UNL1        0.4186
     36 F         137.8714  136.6306  166.4244 F       1  UNL1       -0.1659
     37 F         138.8614  137.3982  164.7124 F       1  UNL1       -0.1659
     38 F         137.5868  138.6053  167.1451 F       1  UNL1       -0.1659
@<TRIPOS>BOND
     1     3     4    1
     2     4     5   ar
     3     5     2    1
     4     2     1    1
     5     1    20    1
     6    20    21    1
     7    21    22    1
     8    22    23    1
     9    23    24    1
    10    25    24    1
    11    25    26    1
    12    26    27    1
    13    27    29    1
    14    29    30   ar
    15    30    31   ar
    16    31    32   ar
    17    32    35    1
    18    35    36    1
    19    35    37    1
    20    35    38    1
    21    32    33   ar
    22    33    34   ar
    23    25    28    1
    24     5     6   ar
    25     6     7   ar
    26     7     8   ar
    27     8     9    1
    28     9    10   ar
    29    10    11   ar
    30    11    12   ar
    31    12    13   ar
    32    13    15    1
    33    15    16   ar
    34    16    17   ar
    35    17    18   ar
    36    18    19   ar
    37    13    14   ar
    38     8     4   ar
    39    14     9   ar
    40    28    22    1
    41    19    15   ar
    42    27    25    1
    43    34    29   ar
@<TRIPOS>MOLECULE
*****
 38 43 0 0 0
SMALL
GASTEIGER

@<TRIPOS>ATOM
      1 C         140.8652  145.3745  160.6737 C.3     1  UNL1        0.0666
      2 S         139.8841  145.6054  161.7845 S.3     1  UNL1       -0.0756
      3 C         141.0845  143.8429  164.2548 C.3     1  UNL1        0.1340
      4 N         139.7621  143.6290  163.5800 N.ar    1  UNL1       -0.2884
      5 C         139.2103  144.4391  162.4445 C.ar    1  UNL1        0.1932
      6 N         137.8664  143.8781  162.0849 N.ar    1  UNL1       -0.1221
      7 N         137.5876  142.7212  162.9982 N.ar    1  UNL1       -0.1282
      8 C         138.7592  142.5672  163.9222 C.ar    1  UNL1        0.1668
      9 C         138.9027  141.5331  164.9993 C.ar    1  UNL1        0.0361
     10 C         138.0592  140.2932  164.9657 C.ar    1  UNL1        0.0031
     11 C         138.2026  139.2591  166.0427 C.ar    1  UNL1        0.0003
     12 C         139.1897  139.4650  167.1534 C.ar    1  UNL1        0.0047
     13 C         140.0332  140.7049  167.1870 C.ar    1  UNL1        0.0537
     14 C         139.8896  141.7390  166.1098 C.ar    1  UNL1        0.0077
     15 C         141.0202  140.9107  168.2976 C.ar    1  UNL1        0.2299
     16 N         140.7025  140.9517  169.7630 N.ar    1  UNL1       -0.2065
     17 C         141.9840  141.1780  170.5089 C.ar    1  UNL1        0.1427
     18 C         143.0938  141.2768  169.5045 C.ar    1  UNL1        0.2021
     19 O         142.4980  141.1116  168.1378 O.2     1  UNL1       -0.4314
     20 C         140.3821  144.9160  159.3296 C.3     1  UNL1        0.0294
     21 C         140.6670  143.5178  158.8670 C.3     1  UNL1        0.0730
     22 N         139.7606  142.3940  159.2735 N.3     1  UNL1       -0.2726
     23 C         138.4380  142.0586  158.6505 C.3     1  UNL1        0.0721
     24 C         137.8776  140.8655  159.3664 C.3     1  UNL1        0.0190
     25 C         138.8539  140.4635  160.4318 C.3     1  UNL1        0.0201
     26 C         138.0545  139.3038  160.9475 C.3     1  UNL1        0.0061
     27 C         139.3771  139.6391  161.5706 C.3     1  UNL1        0.0237
     28 C         140.0177  141.4081  160.3745 C.3     1  UNL1        0.0724
     29 C         140.4428  139.3568  162.5877 C.ar    1  UNL1       -0.0225
     30 C         140.4820  138.0288  163.2841 C.ar    1  UNL1       -0.0043
     31 C         141.5477  137.7465  164.3012 C.ar    1  UNL1        0.0035
     32 C         142.5742  138.7922  164.6220 C.ar    1  UNL1        0.0714
     33 C         142.5350  140.1202  163.9256 C.ar    1  UNL1        0.0035
     34 C         141.4693  140.4025  162.9085 C.ar    1  UNL1       -0.0043
     35 C         143.6399  138.5099  165.6391 C.3     1  UNL1        0.4186
     36 F         144.7056  138.2275  166.6563 F       1  UNL1       -0.1659
     37 F         144.6937  138.7119  164.5910 F       1  UNL1       -0.1659
     38 F         142.5860  138.3079  166.6872 F       1  UNL1       -0.1659
@<TRIPOS>BOND
     1     3     4    1
     2     4     5   ar
     3     5     2    1
     4     2     1    1
     5     1    20    1
     6    20    21    1
     7    21    22    1
     8    22    23    1
     9    23    24    1
    10    25    24    1
    11    25    26    1
    12    26    27    1
    13    27    29    1
    14    29    30   ar
    15    30    31   ar
    16    31    32   ar
    17    32    35    1
    18    35    36    1
    19    35    37    1
    20    35    38    1
    21    32    33   ar
    22    33    34   ar
    23    25    28    1
    24     5     6   ar
    25     6     7   ar
    26     7     8   ar
    27     8     9    1
    28     9    10   ar
    29    10    11   ar
    30    11    12   ar
    31    12    13   ar
    32    13    15    1
    33    15    16   ar
    34    16    17   ar
    35    17    18   ar
    36    18    19   ar
    37    13    14   ar
    38     8     4   ar
    39    14     9   ar
    40    28    22    1
    41    19    15   ar
    42    27    25    1
    43    34    29   ar
@<TRIPOS>MOLECULE
*****
 38 43 0 0 0
SMALL
GASTEIGER

@<TRIPOS>ATOM
      1 C         139.9668  144.1288  158.8192 C.3     1  UNL1        0.0666
      2 S         140.3813  145.1063  159.8788 S.3     1  UNL1       -0.0756
      3 C         142.6531  143.6889  161.7441 C.3     1  UNL1        0.1340
      4 N         141.2788  144.0969  162.1854 N.ar    1  UNL1       -0.2884
      5 C         140.2346  144.7484  161.3280 C.ar    1  UNL1        0.1932
      6 N         139.0178  144.9792  162.1743 N.ar    1  UNL1       -0.1221
      7 N         139.3100  144.4704  163.5548 N.ar    1  UNL1       -0.1282
      8 C         140.7074  143.9250  163.5617 C.ar    1  UNL1        0.1668
      9 C         141.4100  143.3150  164.7383 C.ar    1  UNL1        0.0361
     10 C         142.8400  142.8795  164.6147 C.ar    1  UNL1        0.0031
     11 C         143.5426  142.2694  165.7912 C.ar    1  UNL1        0.0003
     12 C         142.8150  142.0950  167.0914 C.ar    1  UNL1        0.0047
     13 C         141.3849  142.5305  167.2149 C.ar    1  UNL1        0.0537
     14 C         140.6824  143.1405  166.0383 C.ar    1  UNL1        0.0077
     15 C         140.6575  142.3560  168.5150 C.ar    1  UNL1        0.2299
     16 N         140.4708  143.4070  169.5688 N.ar    1  UNL1       -0.2065
     17 C         139.6869  142.8004  170.6947 C.ar    1  UNL1        0.1427
     18 C         139.3891  141.3746  170.3368 C.ar    1  UNL1        0.2021
     19 O         139.9890  141.0999  168.9896 O.2     1  UNL1       -0.4314
     20 C         140.8893  143.0134  158.4256 C.3     1  UNL1        0.0294
     21 C         140.6326  141.6193  158.9160 C.3     1  UNL1        0.0730
     22 N         141.6882  140.8919  159.6948 N.3     1  UNL1       -0.2726
     23 C         143.1235  140.7253  159.2919 C.3     1  UNL1        0.0721
     24 C         143.8162  139.9338  160.3614 C.3     1  UNL1        0.0190
     25 C         142.8091  139.6113  161.4252 C.3     1  UNL1        0.0201
     26 C         143.7536  138.8542  162.3110 C.3     1  UNL1        0.0061
     27 C         142.3184  139.0208  162.7138 C.3     1  UNL1        0.0237
     28 C         141.4939  140.2034  161.0132 C.3     1  UNL1        0.0724
     29 C         141.2064  138.7761  163.6904 C.ar    1  UNL1       -0.0225
     30 C         141.1449  139.5589  164.9685 C.ar    1  UNL1       -0.0043
     31 C         140.0329  139.3142  165.9450 C.ar    1  UNL1        0.0035
     32 C         138.9825  138.2867  165.6435 C.ar    1  UNL1        0.0714
     33 C         139.0441  137.5039  164.3654 C.ar    1  UNL1        0.0035
     34 C         140.1560  137.7486  163.3888 C.ar    1  UNL1       -0.0043
     35 C         137.8706  138.0420  166.6200 C.3     1  UNL1        0.4186
     36 F         136.7586  137.7973  167.5967 F       1  UNL1       -0.1659
     37 F         137.8182  136.6030  166.1998 F       1  UNL1       -0.1659
     38 F         137.9230  139.4809  167.0403 F       1  UNL1       -0.1659
@<TRIPOS>BOND
     1     3     4    1
     2     4     5   ar
     3     5     2    1
     4     2     1    1
     5     1    20    1
     6    20    21    1
     7    21    22    1
     8    22    23    1
     9    23    24    1
    10    25    24    1
    11    25    26    1
    12    26    27    1
    13    27    29    1
    14    29    30   ar
    15    30    31   ar
    16    31    32   ar
    17    32    35    1
    18    35    36    1
    19    35    37    1
    20    35    38    1
    21    32    33   ar
    22    33    34   ar
    23    25    28    1
    24     5     6   ar
    25     6     7   ar
    26     7     8   ar
    27     8     9    1
    28     9    10   ar
    29    10    11   ar
    30    11    12   ar
    31    12    13   ar
    32    13    15    1
    33    15    16   ar
    34    16    17   ar
    35    17    18   ar
    36    18    19   ar
    37    13    14   ar
    38     8     4   ar
    39    14     9   ar
    40    28    22    1
    41    19    15   ar
    42    27    25    1
    43    34    29   ar
@<TRIPOS>MOLECULE
*****
 38 43 0 0 0
SMALL
GASTEIGER

@<TRIPOS>ATOM
      1 C         140.3241  143.4614  159.3208 C.3     1  UNL1        0.0666
      2 S         140.1241  143.9008  160.7410 S.3     1  UNL1       -0.0756
      3 C         141.2700  142.0088  163.1403 C.3     1  UNL1        0.1340
      4 N         139.8265  142.1961  162.7782 N.ar    1  UNL1       -0.2884
      5 C         139.2997  143.0657  161.6753 C.ar    1  UNL1        0.1932
      6 N         137.8039  142.9536  161.6708 N.ar    1  UNL1       -0.1221
      7 N         137.4062  142.0147  162.7709 N.ar    1  UNL1       -0.1282
      8 C         138.6561  141.5465  163.4553 C.ar    1  UNL1        0.1668
      9 C         138.7239  140.5956  164.6135 C.ar    1  UNL1        0.0361
     10 C         138.2641  139.1775  164.4475 C.ar    1  UNL1        0.0031
     11 C         138.3319  138.2267  165.6057 C.ar    1  UNL1        0.0003
     12 C         138.8594  138.6941  166.9298 C.ar    1  UNL1        0.0047
     13 C         139.3192  140.1122  167.0958 C.ar    1  UNL1        0.0537
     14 C         139.2514  141.0630  165.9376 C.ar    1  UNL1        0.0077
     15 C         139.8467  140.5795  168.4200 C.ar    1  UNL1        0.2299
     16 N         140.2734  141.9779  168.7552 N.ar    1  UNL1       -0.2065
     17 C         140.7306  141.9931  170.1837 C.ar    1  UNL1        0.1427
     18 C         140.5864  140.6041  170.7314 C.ar    1  UNL1        0.2021
     19 O         140.0401  139.7304  169.6413 O.2     1  UNL1       -0.4314
     20 C         141.5882  143.8183  158.5963 C.3     1  UNL1        0.0294
     21 C         142.8645  143.0976  158.9151 C.3     1  UNL1        0.0730
     22 N         142.9056  141.5984  158.8903 N.3     1  UNL1       -0.2726
     23 C         142.9130  140.7368  157.6625 C.3     1  UNL1        0.0721
     24 C         142.9586  139.3035  158.1023 C.3     1  UNL1        0.0190
     25 C         142.9793  139.2792  159.6020 C.3     1  UNL1        0.0201
     26 C         143.0223  137.7857  159.7341 C.3     1  UNL1        0.0061
     27 C         143.0149  138.6473  160.9619 C.3     1  UNL1        0.0237
     28 C         142.9465  140.6976  160.0890 C.3     1  UNL1        0.0724
     29 C         143.0312  138.7799  162.4559 C.ar    1  UNL1       -0.0225
     30 C         141.8588  138.3073  163.2637 C.ar    1  UNL1       -0.0043
     31 C         141.8751  138.4399  164.7577 C.ar    1  UNL1        0.0035
     32 C         143.0637  139.0451  165.4440 C.ar    1  UNL1        0.0714
     33 C         144.2361  139.5176  164.6363 C.ar    1  UNL1        0.0035
     34 C         144.2198  139.3850  163.1422 C.ar    1  UNL1       -0.0043
     35 C         143.0800  139.1777  166.9380 C.3     1  UNL1        0.4186
     36 F         143.0963  139.3102  168.4321 F       1  UNL1       -0.1659
     37 F         142.6029  140.5946  166.8174 F       1  UNL1       -0.1659
     38 F         143.5571  137.7607  167.0586 F       1  UNL1       -0.1659
@<TRIPOS>BOND
     1     3     4    1
     2     4     5   ar
     3     5     2    1
     4     2     1    1
     5     1    20    1
     6    20    21    1
     7    21    22    1
     8    22    23    1
     9    23    24    1
    10    25    24    1
    11    25    26    1
    12    26    27    1
    13    27    29    1
    14    29    30   ar
    15    30    31   ar
    16    31    32   ar
    17    32    35    1
    18    35    36    1
    19    35    37    1
    20    35    38    1
    21    32    33   ar
    22    33    34   ar
    23    25    28    1
    24     5     6   ar
    25     6     7   ar
    26     7     8   ar
    27     8     9    1
    28     9    10   ar
    29    10    11   ar
    30    11    12   ar
    31    12    13   ar
    32    13    15    1
    33    15    16   ar
    34    16    17   ar
    35    17    18   ar
    36    18    19   ar
    37    13    14   ar
    38     8     4   ar
    39    14     9   ar
    40    28    22    1
    41    19    15   ar
    42    27    25    1
    43    34    29   ar
@<TRIPOS>MOLECULE
*****
 38 43 0 0 0
SMALL
GASTEIGER

@<TRIPOS>ATOM
      1 C         140.3243  145.8171  160.1573 C.3     1  UNL1        0.0666
      2 S         139.7600  146.0306  161.5306 S.3     1  UNL1       -0.0756
      3 C         142.0278  144.2419  163.0495 C.3     1  UNL1        0.1340
      4 N         140.5443  144.0332  163.1245 N.ar    1  UNL1       -0.2884
      5 C         139.5019  144.8554  162.4263 C.ar    1  UNL1        0.1932
      6 N         138.1560  144.2961  162.7811 N.ar    1  UNL1       -0.1221
      7 N         138.3666  143.1283  163.6986 N.ar    1  UNL1       -0.1282
      8 C         139.8426  142.9657  163.9108 C.ar    1  UNL1        0.1668
      9 C         140.5014  141.9195  164.7602 C.ar    1  UNL1        0.0361
     10 C         141.3953  140.8940  164.1284 C.ar    1  UNL1        0.0031
     11 C         142.0540  139.8478  164.9778 C.ar    1  UNL1        0.0003
     12 C         141.8187  139.8271  166.4591 C.ar    1  UNL1        0.0047
     13 C         140.9248  140.8525  167.0910 C.ar    1  UNL1        0.0537
     14 C         140.2661  141.8988  166.2415 C.ar    1  UNL1        0.0077
     15 C         140.6895  140.8317  168.5723 C.ar    1  UNL1        0.2299
     16 N         141.0144  141.9376  169.5322 N.ar    1  UNL1       -0.2065
     17 C         140.6138  141.4908  170.9068 C.ar    1  UNL1        0.1427
     18 C         140.0413  140.1088  170.7966 C.ar    1  UNL1        0.2021
     19 O         140.0881  139.7014  169.3537 O.2     1  UNL1       -0.4314
     20 C         140.5672  144.4250  159.6544 C.3     1  UNL1        0.0294
     21 C         139.7463  143.8826  158.5221 C.3     1  UNL1        0.0730
     22 N         139.7741  142.4154  158.2112 N.3     1  UNL1       -0.2726
     23 C         140.0007  141.8046  156.8601 C.3     1  UNL1        0.0721
     24 C         139.9468  140.3132  157.0107 C.3     1  UNL1        0.0190
     25 C         139.6869  140.0022  158.4549 C.3     1  UNL1        0.0201
     26 C         139.6873  138.5106  158.2967 C.3     1  UNL1        0.0061
     27 C         139.4607  139.1214  159.6478 C.3     1  UNL1        0.0237
     28 C         139.5801  141.3015  159.1969 C.3     1  UNL1        0.0724
     29 C         139.1993  138.9655  161.1166 C.ar    1  UNL1       -0.0225
     30 C         139.8964  137.8873  161.8922 C.ar    1  UNL1       -0.0043
     31 C         139.6350  137.7314  163.3610 C.ar    1  UNL1        0.0035
     32 C         138.6765  138.6537  164.0542 C.ar    1  UNL1        0.0714
     33 C         137.9794  139.7320  163.2786 C.ar    1  UNL1        0.0035
     34 C         138.2408  139.8879  161.8098 C.ar    1  UNL1       -0.0043
     35 C         138.4151  138.4979  165.5229 C.3     1  UNL1        0.4186
     36 F         138.1536  138.3420  166.9918 F       1  UNL1       -0.1659
     37 F         139.0250  137.1280  165.4861 F       1  UNL1       -0.1659
     38 F         137.8052  139.8678  165.5598 F       1  UNL1       -0.1659
@<TRIPOS>BOND
     1     3     4    1
     2     4     5   ar
     3     5     2    1
     4     2     1    1
     5     1    20    1
     6    20    21    1
     7    21    22    1
     8    22    23    1
     9    23    24    1
    10    25    24    1
    11    25    26    1
    12    26    27    1
    13    27    29    1
    14    29    30   ar
    15    30    31   ar
    16    31    32   ar
    17    32    35    1
    18    35    36    1
    19    35    37    1
    20    35    38    1
    21    32    33   ar
    22    33    34   ar
    23    25    28    1
    24     5     6   ar
    25     6     7   ar
    26     7     8   ar
    27     8     9    1
    28     9    10   ar
    29    10    11   ar
    30    11    12   ar
    31    12    13   ar
    32    13    15    1
    33    15    16   ar
    34    16    17   ar
    35    17    18   ar
    36    18    19   ar
    37    13    14   ar
    38     8     4   ar
    39    14     9   ar
    40    28    22    1
    41    19    15   ar
    42    27    25    1
    43    34    29   ar
@<TRIPOS>MOLECULE
*****
 38 43 0 0 0
SMALL
GASTEIGER

@<TRIPOS>ATOM
      1 C         144.5665  142.0307  160.0762 C.3     1  UNL1        0.0666
      2 S         144.4877  141.9208  161.5700 S.3     1  UNL1       -0.0756
      3 C         141.8027  142.1759  163.4071 C.3     1  UNL1        0.1340
      4 N         142.5049  140.9011  163.0443 N.ar    1  UNL1       -0.2884
      5 C         143.7391  140.7838  162.1999 C.ar    1  UNL1        0.1932
      6 N         144.0933  139.3299  162.0960 N.ar    1  UNL1       -0.1221
      7 N         143.0779  138.5486  162.8761 N.ar    1  UNL1       -0.1282
      8 C         142.0962  139.5196  163.4623 C.ar    1  UNL1        0.1668
      9 C         140.9136  139.1704  164.3164 C.ar    1  UNL1        0.0361
     10 C         139.8783  138.2114  163.8080 C.ar    1  UNL1        0.0031
     11 C         138.6957  137.8623  164.6621 C.ar    1  UNL1        0.0003
     12 C         138.5484  138.4722  166.0246 C.ar    1  UNL1        0.0047
     13 C         139.5837  139.4312  166.5330 C.ar    1  UNL1        0.0537
     14 C         140.7663  139.7803  165.6788 C.ar    1  UNL1        0.0077
     15 C         139.4364  140.0410  167.8955 C.ar    1  UNL1        0.2299
     16 N         140.1494  141.2618  168.3968 N.ar    1  UNL1       -0.2065
     17 C         139.7038  141.5124  169.8070 C.ar    1  UNL1        0.1427
     18 C         138.7155  140.4466  170.1773 C.ar    1  UNL1        0.2021
     19 O         138.5502  139.5372  168.9959 O.2     1  UNL1       -0.4314
     20 C         143.3088  142.1144  159.2630 C.3     1  UNL1        0.0294
     21 C         142.8096  140.9065  158.5271 C.3     1  UNL1        0.0730
     22 N         141.3836  140.4685  158.6847 N.3     1  UNL1       -0.2726
     23 C         140.6624  139.4834  157.8132 C.3     1  UNL1        0.0721
     24 C         139.2616  139.3449  158.3314 C.3     1  UNL1        0.0190
     25 C         139.1171  140.2443  159.5232 C.3     1  UNL1        0.0201
     26 C         137.6838  139.9027  159.8045 C.3     1  UNL1        0.0061
     27 C         138.4051  140.8878  160.6760 C.3     1  UNL1        0.0237
     28 C         140.4286  140.9387  159.7415 C.3     1  UNL1        0.0724
     29 C         138.4104  141.8281  161.8447 C.ar    1  UNL1       -0.0225
     30 C         138.2313  141.2964  163.2358 C.ar    1  UNL1       -0.0043
     31 C         138.2366  142.2367  164.4045 C.ar    1  UNL1        0.0035
     32 C         138.4211  143.7086  164.1820 C.ar    1  UNL1        0.0714
     33 C         138.6002  144.2402  162.7909 C.ar    1  UNL1        0.0035
     34 C         138.5949  143.2999  161.6222 C.ar    1  UNL1       -0.0043
     35 C         138.4265  144.6488  165.3507 C.3     1  UNL1        0.4186
     36 F         138.4318  145.5891  166.5195 F       1  UNL1       -0.1659
     37 F         139.9166  144.5120  165.4539 F       1  UNL1       -0.1659
     38 F         136.9363  144.7856  165.2475 F       1  UNL1       -0.1659
@<TRIPOS>BOND
     1     3     4    1
     2     4     5   ar
     3     5     2    1
     4     2     1    1
     5     1    20    1
     6    20    21    1
     7    21    22    1
     8    22    23    1
     9    23    24    1
    10    25    24    1
    11    25    26    1
    12    26    27    1
    13    27    29    1
    14    29    30   ar
    15    30    31   ar
    16    31    32   ar
    17    32    35    1
    18    35    36    1
    19    35    37    1
    20    35    38    1
    21    32    33   ar
    22    33    34   ar
    23    25    28    1
    24     5     6   ar
    25     6     7   ar
    26     7     8   ar
    27     8     9    1
    28     9    10   ar
    29    10    11   ar
    30    11    12   ar
    31    12    13   ar
    32    13    15    1
    33    15    16   ar
    34    16    17   ar
    35    17    18   ar
    36    18    19   ar
    37    13    14   ar
    38     8     4   ar
    39    14     9   ar
    40    28    22    1
    41    19    15   ar
    42    27    25    1
    43    34    29   ar
@<TRIPOS>MOLECULE
*****
 38 43 0 0 0
SMALL
GASTEIGER

@<TRIPOS>ATOM
      1 C         138.4980  142.5494  158.1789 C.3     1  UNL1        0.0666
      2 S         138.4545  141.3559  159.0864 S.3     1  UNL1       -0.0756
      3 C         139.3360  139.1967  161.3690 C.3     1  UNL1        0.1340
      4 N         138.7468  140.5532  161.6192 N.ar    1  UNL1       -0.2884
      5 C         138.3416  141.5457  160.5701 C.ar    1  UNL1        0.1932
      6 N         137.8037  142.7613  161.2650 N.ar    1  UNL1       -0.1221
      7 N         137.8764  142.5201  162.7437 N.ar    1  UNL1       -0.1282
      8 C         138.4593  141.1554  162.9627 C.ar    1  UNL1        0.1668
      9 C         138.7105  140.5069  164.2917 C.ar    1  UNL1        0.0361
     10 C         138.4945  139.0320  164.4593 C.ar    1  UNL1        0.0031
     11 C         138.7457  138.3835  165.7883 C.ar    1  UNL1        0.0003
     12 C         139.2131  139.2099  166.9497 C.ar    1  UNL1        0.0047
     13 C         139.4291  140.6847  166.7821 C.ar    1  UNL1        0.0537
     14 C         139.1778  141.3332  165.4530 C.ar    1  UNL1        0.0077
     15 C         139.8964  141.5110  167.9435 C.ar    1  UNL1        0.2299
     16 N         139.9866  141.0557  169.3698 N.ar    1  UNL1       -0.2065
     17 C         140.5015  142.2010  170.1903 C.ar    1  UNL1        0.1427
     18 C         140.7296  143.3641  169.2711 C.ar    1  UNL1        0.2021
     19 O         140.3556  142.9377  167.8824 O.2     1  UNL1       -0.4314
     20 C         139.8144  143.0554  157.6678 C.3     1  UNL1        0.0294
     21 C         141.0061  143.0979  158.5779 C.3     1  UNL1        0.0730
     22 N         140.9508  143.8919  159.8493 N.3     1  UNL1       -0.2726
     23 C         140.4958  145.3151  159.9809 C.3     1  UNL1        0.0721
     24 C         140.6047  145.7048  161.4253 C.3     1  UNL1        0.0190
     25 C         141.1271  144.5225  162.1864 C.3     1  UNL1        0.0201
     26 C         141.1268  145.1885  163.5304 C.3     1  UNL1        0.0061
     27 C         141.5818  143.7653  163.3988 C.3     1  UNL1        0.0237
     28 C         141.3410  143.4020  161.2123 C.3     1  UNL1        0.0724
     29 C         142.1071  142.5064  164.0227 C.ar    1  UNL1       -0.0225
     30 C         142.0653  141.2164  163.2583 C.ar    1  UNL1       -0.0043
     31 C         142.5906  139.9576  163.8822 C.ar    1  UNL1        0.0035
     32 C         143.1577  139.9887  165.2705 C.ar    1  UNL1        0.0714
     33 C         143.1995  141.2786  166.0349 C.ar    1  UNL1        0.0035
     34 C         142.6742  142.5375  165.4110 C.ar    1  UNL1       -0.0043
     35 C         143.6830  138.7298  165.8945 C.3     1  UNL1        0.4186
     36 F         144.2082  137.4709  166.5185 F       1  UNL1       -0.1659
     37 F         145.0019  138.9421  165.2123 F       1  UNL1       -0.1659
     38 F         142.3640  138.5175  166.5766 F       1  UNL1       -0.1659
@<TRIPOS>BOND
     1     3     4    1
     2     4     5   ar
     3     5     2    1
     4     2     1    1
     5     1    20    1
     6    20    21    1
     7    21    22    1
     8    22    23    1
     9    23    24    1
    10    25    24    1
    11    25    26    1
    12    26    27    1
    13    27    29    1
    14    29    30   ar
    15    30    31   ar
    16    31    32   ar
    17    32    35    1
    18    35    36    1
    19    35    37    1
    20    35    38    1
    21    32    33   ar
    22    33    34   ar
    23    25    28    1
    24     5     6   ar
    25     6     7   ar
    26     7     8   ar
    27     8     9    1
    28     9    10   ar
    29    10    11   ar
    30    11    12   ar
    31    12    13   ar
    32    13    15    1
    33    15    16   ar
    34    16    17   ar
    35    17    18   ar
    36    18    19   ar
    37    13    14   ar
    38     8     4   ar
    39    14     9   ar
    40    28    22    1
    41    19    15   ar
    42    27    25    1
    43    34    29   ar
@<TRIPOS>MOLECULE
*****
 38 43 0 0 0
SMALL
GASTEIGER

@<TRIPOS>ATOM
      1 C         140.9560  143.8270  159.2932 C.3     1  UNL1        0.0666
      2 S         141.0767  143.9548  160.7828 S.3     1  UNL1       -0.0756
      3 C         140.2929  142.7526  163.7137 C.3     1  UNL1        0.1340
      4 N         141.5054  142.3911  162.9079 N.ar    1  UNL1       -0.2884
      5 C         141.8657  142.9437  161.5608 C.ar    1  UNL1        0.1932
      6 N         143.1534  142.3077  161.1281 N.ar    1  UNL1       -0.1221
      7 N         143.5890  141.3620  162.2079 N.ar    1  UNL1       -0.1282
      8 C         142.5705  141.4135  163.3079 C.ar    1  UNL1        0.1668
      9 C         142.6101  140.6258  164.5838 C.ar    1  UNL1        0.0361
     10 C         143.5468  139.4619  164.7179 C.ar    1  UNL1        0.0031
     11 C         143.5864  138.6742  165.9939 C.ar    1  UNL1        0.0003
     12 C         142.6893  139.0505  167.1357 C.ar    1  UNL1        0.0047
     13 C         141.7526  140.2143  167.0016 C.ar    1  UNL1        0.0537
     14 C         141.7130  141.0020  165.7256 C.ar    1  UNL1        0.0077
     15 C         140.8555  140.5905  168.1434 C.ar    1  UNL1        0.2299
     16 N         140.8266  141.9177  168.8417 N.ar    1  UNL1       -0.2065
     17 C         139.7831  141.8529  169.9172 C.ar    1  UNL1        0.1427
     18 C         139.1670  140.4857  169.8837 C.ar    1  UNL1        0.2021
     19 O         139.8298  139.7055  168.7874 O.2     1  UNL1       -0.4314
     20 C         139.6502  143.4176  158.6789 C.3     1  UNL1        0.0294
     21 C         139.3929  141.9758  158.3552 C.3     1  UNL1        0.0730
     22 N         140.3890  140.9280  158.7551 N.3     1  UNL1       -0.2726
     23 C         141.5680  140.4773  157.9447 C.3     1  UNL1        0.0721
     24 C         142.2886  139.4177  158.7244 C.3     1  UNL1        0.0190
     25 C         141.5548  139.2135  160.0167 C.3     1  UNL1        0.0201
     26 C         142.4687  138.1500  160.5495 C.3     1  UNL1        0.0061
     27 C         141.2897  138.6007  161.3599 C.3     1  UNL1        0.0237
     28 C         140.3808  140.1469  160.0356 C.3     1  UNL1        0.0724
     29 C         140.4559  138.5071  162.6032 C.ar    1  UNL1       -0.0225
     30 C         139.3235  139.4665  162.8209 C.ar    1  UNL1       -0.0043
     31 C         138.4897  139.3729  164.0643 C.ar    1  UNL1        0.0035
     32 C         138.7882  138.3199  165.0900 C.ar    1  UNL1        0.0714
     33 C         139.9206  137.3605  164.8723 C.ar    1  UNL1        0.0035
     34 C         140.7544  137.4541  163.6289 C.ar    1  UNL1       -0.0043
     35 C         137.9544  138.2263  166.3333 C.3     1  UNL1        0.4186
     36 F         137.1205  138.1327  167.5767 F       1  UNL1       -0.1659
     37 F         137.8752  139.7230  166.3929 F       1  UNL1       -0.1659
     38 F         138.0336  136.7296  166.2738 F       1  UNL1       -0.1659
@<TRIPOS>BOND
     1     3     4    1
     2     4     5   ar
     3     5     2    1
     4     2     1    1
     5     1    20    1
     6    20    21    1
     7    21    22    1
     8    22    23    1
     9    23    24    1
    10    25    24    1
    11    25    26    1
    12    26    27    1
    13    27    29    1
    14    29    30   ar
    15    30    31   ar
    16    31    32   ar
    17    32    35    1
    18    35    36    1
    19    35    37    1
    20    35    38    1
    21    32    33   ar
    22    33    34   ar
    23    25    28    1
    24     5     6   ar
    25     6     7   ar
    26     7     8   ar
    27     8     9    1
    28     9    10   ar
    29    10    11   ar
    30    11    12   ar
    31    12    13   ar
    32    13    15    1
    33    15    16   ar
    34    16    17   ar
    35    17    18   ar
    36    18    19   ar
    37    13    14   ar
    38     8     4   ar
    39    14     9   ar
    40    28    22    1
    41    19    15   ar
    42    27    25    1
    43    34    29   ar
@<TRIPOS>MOLECULE
*****
 38 43 0 0 0
SMALL
GASTEIGER

@<TRIPOS>ATOM
      1 C         138.4127  141.9989  158.1488 C.3     1  UNL1        0.0666
      2 S         139.2021  142.8953  159.0563 S.3     1  UNL1       -0.0756
      3 C         141.7093  141.8619  160.8716 C.3     1  UNL1        0.1340
      4 N         140.3347  142.1920  161.3731 N.ar    1  UNL1       -0.2884
      5 C         139.1823  142.6670  160.5387 C.ar    1  UNL1        0.1932
      6 N         138.0065  142.8736  161.4469 N.ar    1  UNL1       -0.1221
      7 N         138.4322  142.5263  162.8426 N.ar    1  UNL1       -0.1282
      8 C         139.8712  142.1050  162.7971 C.ar    1  UNL1        0.1668
      9 C         140.7009  141.6727  163.9696 C.ar    1  UNL1        0.0361
     10 C         142.1111  141.2067  163.7594 C.ar    1  UNL1        0.0031
     11 C         142.9407  140.7744  164.9319 C.ar    1  UNL1        0.0003
     12 C         142.3601  140.8081  166.3146 C.ar    1  UNL1        0.0047
     13 C         140.9499  141.2741  166.5248 C.ar    1  UNL1        0.0537
     14 C         140.1203  141.7064  165.3522 C.ar    1  UNL1        0.0077
     15 C         140.3694  141.3078  167.9075 C.ar    1  UNL1        0.2299
     16 N         140.4864  142.4390  168.8855 N.ar    1  UNL1       -0.2065
     17 C         139.7593  142.0465  170.1374 C.ar    1  UNL1        0.1427
     18 C         139.1929  140.6727  169.9331 C.ar    1  UNL1        0.2021
     19 O         139.5699  140.2161  168.5549 O.2     1  UNL1       -0.4314
     20 C         139.1192  141.1450  157.1380 C.3     1  UNL1        0.0294
     21 C         139.2405  139.6664  157.3588 C.3     1  UNL1        0.0730
     22 N         140.4330  139.1110  158.0796 N.3     1  UNL1       -0.2726
     23 C         141.7630  138.7884  157.4655 C.3     1  UNL1        0.0721
     24 C         142.6568  138.2588  158.5474 C.3     1  UNL1        0.0190
     25 C         141.8792  138.2539  159.8301 C.3     1  UNL1        0.0201
     26 C         142.9838  137.7011  160.6811 C.3     1  UNL1        0.0061
     27 C         141.6539  138.0236  161.2951 C.3     1  UNL1        0.0237
     28 C         140.5048  138.7806  159.5410 C.3     1  UNL1        0.0724
     29 C         140.7559  138.0769  162.4955 C.ar    1  UNL1       -0.0225
     30 C         141.2545  137.5987  163.8269 C.ar    1  UNL1       -0.0043
     31 C         140.3565  137.6520  165.0272 C.ar    1  UNL1        0.0035
     32 C         138.9599  138.1834  164.8961 C.ar    1  UNL1        0.0714
     33 C         138.4614  138.6616  163.5646 C.ar    1  UNL1        0.0035
     34 C         139.3593  138.6083  162.3643 C.ar    1  UNL1       -0.0043
     35 C         138.0620  138.2367  166.0964 C.3     1  UNL1        0.4186
     36 F         137.1639  138.2900  167.2968 F       1  UNL1       -0.1659
     37 F         138.2021  136.7530  166.2671 F       1  UNL1       -0.1659
     38 F         137.9218  139.7203  165.9257 F       1  UNL1       -0.1659
@<TRIPOS>BOND
     1     3     4    1
     2     4     5   ar
     3     5     2    1
     4     2     1    1
     5     1    20    1
     6    20    21    1
     7    21    22    1
     8    22    23    1
     9    23    24    1
    10    25    24    1
    11    25    26    1
    12    26    27    1
    13    27    29    1
    14    29    30   ar
    15    30    31   ar
    16    31    32   ar
    17    32    35    1
    18    35    36    1
    19    35    37    1
    20    35    38    1
    21    32    33   ar
    22    33    34   ar
    23    25    28    1
    24     5     6   ar
    25     6     7   ar
    26     7     8   ar
    27     8     9    1
    28     9    10   ar
    29    10    11   ar
    30    11    12   ar
    31    12    13   ar
    32    13    15    1
    33    15    16   ar
    34    16    17   ar
    35    17    18   ar
    36    18    19   ar
    37    13    14   ar
    38     8     4   ar
    39    14     9   ar
    40    28    22    1
    41    19    15   ar
    42    27    25    1
    43    34    29   ar
