@<TRIPOS>MOLECULE
*****
 28 31 0 0 0
SMALL
GASTEIGER

@<TRIPOS>ATOM
      1 C         141.0325  138.6923  160.9838 C.ar    1  UNL1        0.2214
      2 N         140.9056  140.1738  161.1818 N.ar    1  UNL1       -0.1989
      3 C         140.2145  140.7111  162.3998 C.ar    1  UNL1        0.1330
      4 C         139.6502  139.7670  163.4198 C.ar    1  UNL1        0.0492
      5 C         138.9591  140.3044  164.6378 C.ar    1  UNL1        0.0041
      6 C         138.3948  139.3604  165.6578 C.ar    1  UNL1        0.0002
      7 C         138.5217  137.8789  165.4597 C.ar    1  UNL1        0.0015
      8 C         139.2128  137.3416  164.2417 C.ar    1  UNL1        0.0193
      9 C         139.7771  138.2856  163.2217 C.ar    1  UNL1        0.0868
     10 N         140.4682  137.7482  162.0037 N.ar    1  UNL1       -0.2135
     11 C         138.8322  141.7859  164.8358 C.ar    1  UNL1        0.0001
     12 C         139.8545  142.5243  165.6479 C.ar    1  UNL1        0.0000
     13 C         139.7277  144.0058  165.8460 C.ar    1  UNL1        0.0000
     14 C         138.5784  144.7488  165.2318 C.ar    1  UNL1        0.0000
     15 C         137.5561  144.0104  164.4197 C.ar    1  UNL1        0.0000
     16 C         137.6830  142.5289  164.2217 C.ar    1  UNL1        0.0000
     17 C         141.1440  138.4015  158.4044 C.3     1  UNL1        0.1151
     18 N         141.7236  138.1549  159.7657 N.pl3   1  UNL1       -0.2747
     19 C         142.9944  137.3709  159.9091 C.3     1  UNL1        0.1151
     20 N         140.0876  142.1925  162.5978 N.pl3   1  UNL1       -0.3131
     21 H         139.2619  142.5692  162.9794 H       1  UNL1        0.1485
     22 C         141.2187  143.1001  162.2145 C.3     1  UNL1        0.1348
     23 C         142.3227  143.3766  163.1917 C.ar    1  UNL1        0.0788
     24 C         142.7114  144.7913  163.5035 C.ar    1  UNL1        0.0165
     25 C         143.8153  145.0679  164.4807 C.ar    1  UNL1        0.0029
     26 C         144.5305  143.9295  165.1461 C.ar    1  UNL1        0.0207
     27 C         144.1418  142.5147  164.8342 C.ar    1  UNL1        0.0985
     28 N         143.0379  142.2382  163.8571 N.ar    1  UNL1       -0.2464
@<TRIPOS>BOND
     1    17    18    1
     2    18    19    1
     3    18     1    1
     4     1     2   ar
     5     2     3   ar
     6     3    20    1
     7    20    22    1
     8    22    23    1
     9    23    24   ar
    10    24    25   ar
    11    25    26   ar
    12    26    27   ar
    13    27    28   ar
    14     3     4   ar
    15     4     5   ar
    16     5    11    1
    17    11    12   ar
    18    12    13   ar
    19    13    14   ar
    20    14    15   ar
    21    15    16   ar
    22     5     6   ar
    23     6     7   ar
    24     7     8   ar
    25     8     9   ar
    26     9    10   ar
    27    10     1   ar
    28    28    23   ar
    29     9     4   ar
    30    16    11   ar
    31    20    21    1
@<TRIPOS>MOLECULE
*****
 28 31 0 0 0
SMALL
GASTEIGER

@<TRIPOS>ATOM
      1 C         141.7265  138.7878  163.2490 C.ar    1  UNL1        0.2214
      2 N         142.5087  139.6629  164.1831 N.ar    1  UNL1       -0.1989
      3 C         141.9389  140.0291  165.5214 C.ar    1  UNL1        0.1330
      4 C         140.5869  139.5203  165.9256 C.ar    1  UNL1        0.0492
      5 C         140.0171  139.8866  167.2640 C.ar    1  UNL1        0.0041
      6 C         138.6652  139.3778  167.6682 C.ar    1  UNL1        0.0002
      7 C         137.8831  138.5028  166.7341 C.ar    1  UNL1        0.0015
      8 C         138.4529  138.1365  165.3958 C.ar    1  UNL1        0.0193
      9 C         139.8048  138.6453  164.9915 C.ar    1  UNL1        0.0868
     10 N         140.3746  138.2791  163.6532 N.ar    1  UNL1       -0.2135
     11 C         140.7993  140.7616  168.1981 C.ar    1  UNL1        0.0001
     12 C         141.8336  140.1584  169.1016 C.ar    1  UNL1        0.0000
     13 C         142.6158  141.0334  170.0357 C.ar    1  UNL1        0.0000
     14 C         142.3636  142.5118  170.0663 C.ar    1  UNL1        0.0000
     15 C         141.3292  143.1150  169.1628 C.ar    1  UNL1        0.0000
     16 C         140.5471  142.2400  168.2288 C.ar    1  UNL1        0.0000
     17 C         143.7557  138.1008  161.7791 C.3     1  UNL1        0.1151
     18 N         142.2964  138.4216  161.9106 N.pl3   1  UNL1       -0.2747
     19 C         141.4067  138.3761  160.7037 C.3     1  UNL1        0.1151
     20 N         142.7210  140.9042  166.4556 N.pl3   1  UNL1       -0.3131
     21 H         142.6480  140.7743  167.4287 H       1  UNL1        0.1485
     22 C         143.6143  141.9771  165.9069 C.3     1  UNL1        0.1348
     23 C         143.0296  143.1044  165.1087 C.ar    1  UNL1        0.0788
     24 C         143.9321  144.0451  164.3669 C.ar    1  UNL1        0.0165
     25 C         143.3473  145.1725  163.5686 C.ar    1  UNL1        0.0029
     26 C         141.8600  145.3591  163.5123 C.ar    1  UNL1        0.0207
     27 C         140.9575  144.4183  164.2542 C.ar    1  UNL1        0.0985
     28 N         141.5423  143.2910  165.0524 N.ar    1  UNL1       -0.2464
@<TRIPOS>BOND
     1    17    18    1
     2    18    19    1
     3    18     1    1
     4     1     2   ar
     5     2     3   ar
     6     3    20    1
     7    20    22    1
     8    22    23    1
     9    23    24   ar
    10    24    25   ar
    11    25    26   ar
    12    26    27   ar
    13    27    28   ar
    14     3     4   ar
    15     4     5   ar
    16     5    11    1
    17    11    12   ar
    18    12    13   ar
    19    13    14   ar
    20    14    15   ar
    21    15    16   ar
    22     5     6   ar
    23     6     7   ar
    24     7     8   ar
    25     8     9   ar
    26     9    10   ar
    27    10     1   ar
    28    28    23   ar
    29     9     4   ar
    30    16    11   ar
    31    20    21    1
@<TRIPOS>MOLECULE
*****
 28 31 0 0 0
SMALL
GASTEIGER

@<TRIPOS>ATOM
      1 C         141.3137  144.4923  161.9618 C.ar    1  UNL1        0.2214
      2 N         140.7626  144.0283  163.2775 N.ar    1  UNL1       -0.1989
      3 C         141.5909  143.1532  164.1709 C.ar    1  UNL1        0.1330
      4 C         142.9703  142.7422  163.7485 C.ar    1  UNL1        0.0492
      5 C         143.7987  141.8671  164.6419 C.ar    1  UNL1        0.0041
      6 C         145.1781  141.4561  164.2196 C.ar    1  UNL1        0.0002
      7 C         145.7291  141.9202  162.9040 C.ar    1  UNL1        0.0015
      8 C         144.9007  142.7952  162.0106 C.ar    1  UNL1        0.0193
      9 C         143.5214  143.2062  162.4329 C.ar    1  UNL1        0.0868
     10 N         142.6930  144.0813  161.5395 N.ar    1  UNL1       -0.2135
     11 C         143.2476  141.4031  165.9576 C.ar    1  UNL1        0.0001
     12 C         142.6811  140.0203  166.0877 C.ar    1  UNL1        0.0000
     13 C         142.1300  139.5563  167.4034 C.ar    1  UNL1        0.0000
     14 C         142.1455  140.4751  168.5890 C.ar    1  UNL1        0.0000
     15 C         142.7120  141.8579  168.4589 C.ar    1  UNL1        0.0000
     16 C         143.2630  142.3219  167.1432 C.ar    1  UNL1        0.0000
     17 C         140.5458  145.1908  159.5801 C.3     1  UNL1        0.1151
     18 N         140.4853  145.3674  161.0684 N.pl3   1  UNL1       -0.2747
     19 C         139.5965  146.4191  161.6634 C.3     1  UNL1        0.1151
     20 N         141.0399  142.6892  165.4865 N.pl3   1  UNL1       -0.3131
     21 H         141.5993  142.7280  166.2957 H       1  UNL1        0.1485
     22 C         139.6365  142.1659  165.5693 C.3     1  UNL1        0.1348
     23 C         139.3577  140.7191  165.2884 C.ar    1  UNL1        0.0788
     24 C         138.6618  139.8762  166.3157 C.ar    1  UNL1        0.0165
     25 C         138.3830  138.4293  166.0348 C.ar    1  UNL1        0.0029
     26 C         138.8002  137.8253  164.7267 C.ar    1  UNL1        0.0207
     27 C         139.4962  138.6683  163.6994 C.ar    1  UNL1        0.0985
     28 N         139.7749  140.1151  163.9803 N.ar    1  UNL1       -0.2464
@<TRIPOS>BOND
     1    17    18    1
     2    18    19    1
     3    18     1    1
     4     1     2   ar
     5     2     3   ar
     6     3    20    1
     7    20    22    1
     8    22    23    1
     9    23    24   ar
    10    24    25   ar
    11    25    26   ar
    12    26    27   ar
    13    27    28   ar
    14     3     4   ar
    15     4     5   ar
    16     5    11    1
    17    11    12   ar
    18    12    13   ar
    19    13    14   ar
    20    14    15   ar
    21    15    16   ar
    22     5     6   ar
    23     6     7   ar
    24     7     8   ar
    25     8     9   ar
    26     9    10   ar
    27    10     1   ar
    28    28    23   ar
    29     9     4   ar
    30    16    11   ar
    31    20    21    1
@<TRIPOS>MOLECULE
*****
 28 31 0 0 0
SMALL
GASTEIGER

@<TRIPOS>ATOM
      1 C         138.8755  142.4058  160.1758 C.ar    1  UNL1        0.2214
      2 N         140.3273  142.3415  160.5479 N.ar    1  UNL1       -0.1989
      3 C         140.7792  142.8293  161.8925 C.ar    1  UNL1        0.1330
      4 C         139.7794  143.3814  162.8649 C.ar    1  UNL1        0.0492
      5 C         140.2313  143.8691  164.2095 C.ar    1  UNL1        0.0041
      6 C         139.2315  144.4212  165.1819 C.ar    1  UNL1        0.0002
      7 C         137.7799  144.4855  164.8098 C.ar    1  UNL1        0.0015
      8 C         137.3280  143.9977  163.4653 C.ar    1  UNL1        0.0193
      9 C         138.3277  143.4457  162.4928 C.ar    1  UNL1        0.0868
     10 N         137.8758  142.9579  161.1483 N.ar    1  UNL1       -0.2135
     11 C         141.6830  143.8048  164.5816 C.ar    1  UNL1        0.0001
     12 C         142.1711  142.7381  165.5163 C.ar    1  UNL1        0.0000
     13 C         143.6229  142.6737  165.8884 C.ar    1  UNL1        0.0000
     14 C         144.5864  143.6762  165.3257 C.ar    1  UNL1        0.0000
     15 C         144.0983  144.7430  164.3910 C.ar    1  UNL1        0.0000
     16 C         142.6466  144.8073  164.0189 C.ar    1  UNL1        0.0000
     17 C         138.4545  142.8411  157.6493 C.3     1  UNL1        0.1151
     18 N         138.4236  141.9181  158.8312 N.pl3   1  UNL1       -0.2747
     19 C         137.9408  140.5072  158.6687 C.3     1  UNL1        0.1151
     20 N         142.2308  142.7650  162.2646 N.pl3   1  UNL1       -0.3131
     21 H         142.6588  143.5307  162.7115 H       1  UNL1        0.1485
     22 C         143.0305  141.5340  161.9557 C.3     1  UNL1        0.1348
     23 C         143.3705  140.5663  163.0502 C.ar    1  UNL1        0.0788
     24 C         144.8019  140.3520  163.4438 C.ar    1  UNL1        0.0165
     25 C         145.1420  139.3842  164.5384 C.ar    1  UNL1        0.0029
     26 C         144.0505  138.6309  165.2392 C.ar    1  UNL1        0.0207
     27 C         142.6190  138.8453  164.8456 C.ar    1  UNL1        0.0985
     28 N         142.2790  139.8130  163.7511 N.ar    1  UNL1       -0.2464
@<TRIPOS>BOND
     1    17    18    1
     2    18    19    1
     3    18     1    1
     4     1     2   ar
     5     2     3   ar
     6     3    20    1
     7    20    22    1
     8    22    23    1
     9    23    24   ar
    10    24    25   ar
    11    25    26   ar
    12    26    27   ar
    13    27    28   ar
    14     3     4   ar
    15     4     5   ar
    16     5    11    1
    17    11    12   ar
    18    12    13   ar
    19    13    14   ar
    20    14    15   ar
    21    15    16   ar
    22     5     6   ar
    23     6     7   ar
    24     7     8   ar
    25     8     9   ar
    26     9    10   ar
    27    10     1   ar
    28    28    23   ar
    29     9     4   ar
    30    16    11   ar
    31    20    21    1
@<TRIPOS>MOLECULE
*****
 28 31 0 0 0
SMALL
GASTEIGER

@<TRIPOS>ATOM
      1 C         140.6214  143.7150  162.0528 C.ar    1  UNL1        0.2214
      2 N         139.7388  143.0854  163.0895 N.ar    1  UNL1       -0.1989
      3 C         140.3062  142.6994  164.4233 C.ar    1  UNL1        0.1330
      4 C         141.7562  142.9430  164.7204 C.ar    1  UNL1        0.0492
      5 C         142.3236  142.5570  166.0542 C.ar    1  UNL1        0.0041
      6 C         143.7736  142.8006  166.3514 C.ar    1  UNL1        0.0002
      7 C         144.6561  143.4301  165.3147 C.ar    1  UNL1        0.0015
      8 C         144.0887  143.8161  163.9809 C.ar    1  UNL1        0.0193
      9 C         142.6387  143.5726  163.6837 C.ar    1  UNL1        0.0868
     10 N         142.0713  143.9586  162.3499 N.ar    1  UNL1       -0.2135
     11 C         141.4410  141.9274  167.0909 C.ar    1  UNL1        0.0001
     12 C         140.7815  142.7812  168.1331 C.ar    1  UNL1        0.0000
     13 C         139.8989  142.1516  169.1698 C.ar    1  UNL1        0.0000
     14 C         139.6758  140.6683  169.1643 C.ar    1  UNL1        0.0000
     15 C         140.3354  139.8145  168.1221 C.ar    1  UNL1        0.0000
     16 C         141.2180  140.4441  167.0854 C.ar    1  UNL1        0.0000
     17 C         139.1744  143.1425  159.9723 C.3     1  UNL1        0.1151
     18 N         140.0540  144.1010  160.7190 N.pl3   1  UNL1       -0.2747
     19 C         140.3662  145.4456  160.1318 C.3     1  UNL1        0.1151
     20 N         139.4237  142.0699  165.4600 N.pl3   1  UNL1       -0.3131
     21 H         139.6566  142.1412  166.4139 H       1  UNL1        0.1485
     22 C         138.1861  141.3316  165.0434 C.3     1  UNL1        0.1348
     23 C         138.2934  140.1338  164.1469 C.ar    1  UNL1        0.0788
     24 C         138.9336  138.8746  164.6512 C.ar    1  UNL1        0.0165
     25 C         139.0409  137.6767  163.7547 C.ar    1  UNL1        0.0029
     26 C         138.5080  137.7381  162.3539 C.ar    1  UNL1        0.0207
     27 C         137.8678  138.9975  161.8496 C.ar    1  UNL1        0.0985
     28 N         137.7605  140.1953  162.7461 N.ar    1  UNL1       -0.2464
@<TRIPOS>BOND
     1    17    18    1
     2    18    19    1
     3    18     1    1
     4     1     2   ar
     5     2     3   ar
     6     3    20    1
     7    20    22    1
     8    22    23    1
     9    23    24   ar
    10    24    25   ar
    11    25    26   ar
    12    26    27   ar
    13    27    28   ar
    14     3     4   ar
    15     4     5   ar
    16     5    11    1
    17    11    12   ar
    18    12    13   ar
    19    13    14   ar
    20    14    15   ar
    21    15    16   ar
    22     5     6   ar
    23     6     7   ar
    24     7     8   ar
    25     8     9   ar
    26     9    10   ar
    27    10     1   ar
    28    28    23   ar
    29     9     4   ar
    30    16    11   ar
    31    20    21    1
@<TRIPOS>MOLECULE
*****
 28 31 0 0 0
SMALL
GASTEIGER

@<TRIPOS>ATOM
      1 C         141.2616  143.6523  160.7429 C.ar    1  UNL1        0.2214
      2 N         141.2235  142.2420  161.2527 N.ar    1  UNL1       -0.1989
      3 C         141.9609  141.8778  162.5071 C.ar    1  UNL1        0.1330
      4 C         142.7365  142.9239  163.2517 C.ar    1  UNL1        0.0492
      5 C         143.4739  142.5597  164.5061 C.ar    1  UNL1        0.0041
      6 C         144.2494  143.6056  165.2507 C.ar    1  UNL1        0.0002
      7 C         144.2875  145.0158  164.7409 C.ar    1  UNL1        0.0015
      8 C         143.5501  145.3800  163.4865 C.ar    1  UNL1        0.0193
      9 C         142.7745  144.3340  162.7419 C.ar    1  UNL1        0.0868
     10 N         142.0371  144.6982  161.4875 N.ar    1  UNL1       -0.2135
     11 C         143.4358  141.1494  165.0159 C.ar    1  UNL1        0.0001
     12 C         144.4262  140.1424  164.5111 C.ar    1  UNL1        0.0000
     13 C         144.3881  138.7321  165.0209 C.ar    1  UNL1        0.0000
     14 C         143.3596  138.3290  166.0355 C.ar    1  UNL1        0.0000
     15 C         142.3691  139.3361  166.5403 C.ar    1  UNL1        0.0000
     16 C         142.4072  140.7462  166.0305 C.ar    1  UNL1        0.0000
     17 C         139.4576  143.1069  158.9545 C.3     1  UNL1        0.1151
     18 N         140.5242  144.0165  159.4885 N.pl3   1  UNL1       -0.2747
     19 C         140.8533  145.2903  158.7680 C.3     1  UNL1        0.1151
     20 N         141.9229  140.4676  163.0169 N.pl3   1  UNL1       -0.3131
     21 H         142.6998  140.0953  163.4933 H       1  UNL1        0.1485
     22 C         140.7010  139.6247  162.8007 C.3     1  UNL1        0.1348
     23 C         139.8402  139.2387  163.9669 C.ar    1  UNL1        0.0788
     24 C         139.7170  137.7974  164.3635 C.ar    1  UNL1        0.0165
     25 C         138.8562  137.4114  165.5298 C.ar    1  UNL1        0.0029
     26 C         138.1186  138.4667  166.2993 C.ar    1  UNL1        0.0207
     27 C         138.2419  139.9081  165.9027 C.ar    1  UNL1        0.0985
     28 N         139.1027  140.2941  164.7365 N.ar    1  UNL1       -0.2464
@<TRIPOS>BOND
     1    17    18    1
     2    18    19    1
     3    18     1    1
     4     1     2   ar
     5     2     3   ar
     6     3    20    1
     7    20    22    1
     8    22    23    1
     9    23    24   ar
    10    24    25   ar
    11    25    26   ar
    12    26    27   ar
    13    27    28   ar
    14     3     4   ar
    15     4     5   ar
    16     5    11    1
    17    11    12   ar
    18    12    13   ar
    19    13    14   ar
    20    14    15   ar
    21    15    16   ar
    22     5     6   ar
    23     6     7   ar
    24     7     8   ar
    25     8     9   ar
    26     9    10   ar
    27    10     1   ar
    28    28    23   ar
    29     9     4   ar
    30    16    11   ar
    31    20    21    1
@<TRIPOS>MOLECULE
*****
 28 31 0 0 0
SMALL
GASTEIGER

@<TRIPOS>ATOM
      1 C         139.7898  141.7234  163.0503 C.ar    1  UNL1        0.2214
      2 N         140.7633  142.4179  163.9559 N.ar    1  UNL1       -0.1989
      3 C         140.8125  142.0679  165.4136 C.ar    1  UNL1        0.1330
      4 C         139.8882  141.0235  165.9658 C.ar    1  UNL1        0.0492
      5 C         139.9375  140.6735  167.4236 C.ar    1  UNL1        0.0041
      6 C         139.0132  139.6291  167.9758 C.ar    1  UNL1        0.0002
      7 C         138.0397  138.9347  167.0702 C.ar    1  UNL1        0.0015
      8 C         137.9905  139.2847  165.6124 C.ar    1  UNL1        0.0193
      9 C         138.9147  140.3291  165.0602 C.ar    1  UNL1        0.0868
     10 N         138.8655  140.6791  163.6025 N.ar    1  UNL1       -0.2135
     11 C         140.9110  141.3679  168.3292 C.ar    1  UNL1        0.0001
     12 C         140.5417  142.6745  168.9666 C.ar    1  UNL1        0.0000
     13 C         141.5152  143.3690  169.8722 C.ar    1  UNL1        0.0000
     14 C         142.8581  142.7568  170.1403 C.ar    1  UNL1        0.0000
     15 C         143.2274  141.4501  169.5028 C.ar    1  UNL1        0.0000
     16 C         142.2539  140.7557  168.5972 C.ar    1  UNL1        0.0000
     17 C         141.0115  142.3405  160.8420 C.3     1  UNL1        0.1151
     18 N         139.7405  142.0734  161.5925 N.pl3   1  UNL1       -0.2747
     19 C         138.4203  142.1563  160.8853 C.3     1  UNL1        0.1151
     20 N         141.7860  142.7623  166.3192 N.pl3   1  UNL1       -0.3131
     21 H         141.4635  143.2269  167.1250 H       1  UNL1        0.1485
     22 C         143.2510  142.7488  165.9970 C.3     1  UNL1        0.1348
     23 C         143.7611  141.9146  164.8596 C.ar    1  UNL1        0.0788
     24 C         143.9032  140.4303  165.0228 C.ar    1  UNL1        0.0165
     25 C         144.4133  139.5961  163.8853 C.ar    1  UNL1        0.0029
     26 C         144.7814  140.2462  162.5846 C.ar    1  UNL1        0.0207
     27 C         144.6393  141.7306  162.4214 C.ar    1  UNL1        0.0985
     28 N         144.1292  142.5647  163.5588 N.ar    1  UNL1       -0.2464
@<TRIPOS>BOND
     1    17    18    1
     2    18    19    1
     3    18     1    1
     4     1     2   ar
     5     2     3   ar
     6     3    20    1
     7    20    22    1
     8    22    23    1
     9    23    24   ar
    10    24    25   ar
    11    25    26   ar
    12    26    27   ar
    13    27    28   ar
    14     3     4   ar
    15     4     5   ar
    16     5    11    1
    17    11    12   ar
    18    12    13   ar
    19    13    14   ar
    20    14    15   ar
    21    15    16   ar
    22     5     6   ar
    23     6     7   ar
    24     7     8   ar
    25     8     9   ar
    26     9    10   ar
    27    10     1   ar
    28    28    23   ar
    29     9     4   ar
    30    16    11   ar
    31    20    21    1
@<TRIPOS>MOLECULE
*****
 28 31 0 0 0
SMALL
GASTEIGER

@<TRIPOS>ATOM
      1 C         141.8030  141.1381  168.8101 C.ar    1  UNL1        0.2214
      2 N         142.4911  141.0146  167.4829 N.ar    1  UNL1       -0.1989
      3 C         141.8078  140.3138  166.3463 C.ar    1  UNL1        0.1330
      4 C         140.4364  139.7365  166.5369 C.ar    1  UNL1        0.0492
      5 C         139.7531  139.0357  165.4002 C.ar    1  UNL1        0.0041
      6 C         138.3818  138.4584  165.5907 C.ar    1  UNL1        0.0002
      7 C         137.6938  138.5820  166.9178 C.ar    1  UNL1        0.0015
      8 C         138.3771  139.2828  168.0545 C.ar    1  UNL1        0.0193
      9 C         139.7484  139.8601  167.8640 C.ar    1  UNL1        0.0868
     10 N         140.4317  140.5609  169.0006 N.ar    1  UNL1       -0.2135
     11 C         140.4412  138.9121  164.0730 C.ar    1  UNL1        0.0001
     12 C         141.3427  137.7445  163.8014 C.ar    1  UNL1        0.0000
     13 C         142.0308  137.6209  162.4742 C.ar    1  UNL1        0.0000
     14 C         141.8172  138.6651  161.4187 C.ar    1  UNL1        0.0000
     15 C         140.9157  139.8328  161.6903 C.ar    1  UNL1        0.0000
     16 C         140.2277  139.9563  163.0175 C.ar    1  UNL1        0.0000
     17 C         143.8816  142.3620  169.7752 C.3     1  UNL1        0.1151
     18 N         142.4863  141.8389  169.9468 N.pl3   1  UNL1       -0.2747
     19 C         141.7742  142.0167  171.2550 C.3     1  UNL1        0.1151
     20 N         142.4957  140.1902  165.0192 N.pl3   1  UNL1       -0.3131
     21 H         142.2884  139.4323  164.4259 H       1  UNL1        0.1485
     22 C         143.4996  141.2213  164.5958 C.3     1  UNL1        0.1348
     23 C         143.0588  142.6281  164.3194 C.ar    1  UNL1        0.0788
     24 C         144.0756  143.7259  164.2151 C.ar    1  UNL1        0.0165
     25 C         143.6348  145.1328  163.9386 C.ar    1  UNL1        0.0029
     26 C         142.1771  145.4418  163.7664 C.ar    1  UNL1        0.0207
     27 C         141.1602  144.3439  163.8707 C.ar    1  UNL1        0.0985
     28 N         141.6011  142.9371  164.1472 N.ar    1  UNL1       -0.2464
@<TRIPOS>BOND
     1    17    18    1
     2    18    19    1
     3    18     1    1
     4     1     2   ar
     5     2     3   ar
     6     3    20    1
     7    20    22    1
     8    22    23    1
     9    23    24   ar
    10    24    25   ar
    11    25    26   ar
    12    26    27   ar
    13    27    28   ar
    14     3     4   ar
    15     4     5   ar
    16     5    11    1
    17    11    12   ar
    18    12    13   ar
    19    13    14   ar
    20    14    15   ar
    21    15    16   ar
    22     5     6   ar
    23     6     7   ar
    24     7     8   ar
    25     8     9   ar
    26     9    10   ar
    27    10     1   ar
    28    28    23   ar
    29     9     4   ar
    30    16    11   ar
    31    20    21    1
@<TRIPOS>MOLECULE
*****
 28 31 0 0 0
SMALL
GASTEIGER

@<TRIPOS>ATOM
      1 C         142.8362  139.6935  162.3401 C.ar    1  UNL1        0.2214
      2 N         142.0222  139.1427  163.4734 N.ar    1  UNL1       -0.1989
      3 C         142.0543  139.8130  164.8149 C.ar    1  UNL1        0.1330
      4 C         142.9004  141.0340  165.0232 C.ar    1  UNL1        0.0492
      5 C         142.9325  141.7042  166.3648 C.ar    1  UNL1        0.0041
      6 C         143.7785  142.9252  166.5731 C.ar    1  UNL1        0.0002
      7 C         144.5924  143.4759  165.4399 C.ar    1  UNL1        0.0015
      8 C         144.5603  142.8057  164.0983 C.ar    1  UNL1        0.0193
      9 C         143.7143  141.5847  163.8900 C.ar    1  UNL1        0.0868
     10 N         143.6822  140.9144  162.5485 N.ar    1  UNL1       -0.2135
     11 C         142.1185  141.1535  167.4980 C.ar    1  UNL1        0.0001
     12 C         140.7602  141.7189  167.7899 C.ar    1  UNL1        0.0000
     13 C         139.9462  141.1681  168.9232 C.ar    1  UNL1        0.0000
     14 C         140.4906  140.0519  169.7644 C.ar    1  UNL1        0.0000
     15 C         141.8490  139.4865  169.4725 C.ar    1  UNL1        0.0000
     16 C         142.6629  140.0373  168.3393 C.ar    1  UNL1        0.0000
     17 C         142.1463  139.7044  159.8354 C.3     1  UNL1        0.1151
     18 N         142.8041  139.0232  160.9986 N.pl3   1  UNL1       -0.2747
     19 C         143.4298  137.6716  160.8203 C.3     1  UNL1        0.1151
     20 N         141.2404  139.2623  165.9481 N.pl3   1  UNL1       -0.3131
     21 H         141.6664  139.0789  166.8166 H       1  UNL1        0.1485
     22 C         139.7774  138.9909  165.7582 C.3     1  UNL1        0.1348
     23 C         138.9730  139.8393  164.8185 C.ar    1  UNL1        0.0788
     24 C         138.6077  141.2428  165.2013 C.ar    1  UNL1        0.0165
     25 C         137.8033  142.0913  164.2616 C.ar    1  UNL1        0.0029
     26 C         137.3642  141.5362  162.9391 C.ar    1  UNL1        0.0207
     27 C         137.7295  140.1326  162.5563 C.ar    1  UNL1        0.0985
     28 N         138.5339  139.2842  163.4960 N.ar    1  UNL1       -0.2464
@<TRIPOS>BOND
     1    17    18    1
     2    18    19    1
     3    18     1    1
     4     1     2   ar
     5     2     3   ar
     6     3    20    1
     7    20    22    1
     8    22    23    1
     9    23    24   ar
    10    24    25   ar
    11    25    26   ar
    12    26    27   ar
    13    27    28   ar
    14     3     4   ar
    15     4     5   ar
    16     5    11    1
    17    11    12   ar
    18    12    13   ar
    19    13    14   ar
    20    14    15   ar
    21    15    16   ar
    22     5     6   ar
    23     6     7   ar
    24     7     8   ar
    25     8     9   ar
    26     9    10   ar
    27    10     1   ar
    28    28    23   ar
    29     9     4   ar
    30    16    11   ar
    31    20    21    1
