@<TRIPOS>MOLECULE
*****
 30 34 0 0 0
SMALL
GASTEIGER

@<TRIPOS>ATOM
      1 N         139.2143  138.4501  162.2684 N.3     1  UNL1       -0.2725
      2 C         140.0056  137.6511  163.2610 C.3     1  UNL1        0.0738
      3 C         139.9437  137.9941  164.7199 C.3     1  UNL1        0.0376
      4 C         139.0905  139.1363  165.1863 C.3     1  UNL1        0.0841
      5 C         138.2992  139.9353  164.1936 C.3     1  UNL1        0.0376
      6 C         138.3611  139.5922  162.7347 C.3     1  UNL1        0.0738
      7 N         139.0286  139.4794  166.6452 N.am    1  UNL1       -0.2423
      8 C         138.0704  138.9049  167.6461 C.2     1  UNL1        0.3310
      9 O         137.0058  137.8866  167.3639 O.2     1  UNL1       -0.2501
     10 N         138.3636  139.5277  168.9789 N.am    1  UNL1       -0.1647
     11 C         139.5030  140.4870  168.8016 C.2     1  UNL1        0.0715
     12 C         140.2194  141.3839  169.7672 C.3     1  UNL1        0.0824
     13 C         141.3469  142.2509  169.2904 C.2     1  UNL1        0.0412
     14 CL        142.0633  143.1478  170.2560 Cl      1  UNL1       -0.0865
     15 C         141.7578  142.2210  167.8482 C.2     1  UNL1        0.0087
     16 C         141.0414  141.3242  166.8826 C.2     1  UNL1        0.0165
     17 C         139.9140  140.4572  167.3593 C.2     1  UNL1        0.0669
     18 C         139.2762  138.1070  160.8095 C.3     1  UNL1        0.0739
     19 C         139.4986  139.1880  159.7936 C.3     1  UNL1        0.0393
     20 C         140.8423  139.8446  159.6789 C.3     1  UNL1        0.1013
     21 O         142.7679  137.3670  158.7829 O.2     1  UNL1       -0.2501
     22 C         142.8930  138.1695  160.0440 C.2     1  UNL1        0.3310
     23 N         143.9253  137.9742  161.1147 N.am    1  UNL1       -0.1647
     24 C         143.6781  138.9922  162.1882 C.2     1  UNL1        0.0706
     25 C         144.3790  139.2749  163.4839 C.3     1  UNL1        0.0705
     26 C         143.8948  140.3822  164.3724 C.2     1  UNL1       -0.0199
     27 C         142.7098  141.2068  163.9652 C.2     1  UNL1       -0.0029
     28 C         142.0090  140.9241  162.6695 C.2     1  UNL1        0.0156
     29 C         142.4931  139.8168  161.7810 C.2     1  UNL1        0.0669
     30 N         142.0079  139.3084  160.4558 N.am    1  UNL1       -0.2407
@<TRIPOS>BOND
     1    21    22    2
     2    22    23    1
     3    23    24    2
     4    24    25    1
     5    25    26    1
     6    26    27    2
     7    27    28    1
     8    28    29    2
     9    29    30    1
    10    30    20    1
    11    20    19    1
    12    19    18    1
    13    18     1    1
    14     1     2    1
    15     2     3    1
    16     3     4    1
    17     4     7    1
    18     7     8   am
    19     8     9    2
    20     8    10    1
    21    10    11    2
    22    11    12    1
    23    12    13    1
    24    13    14    1
    25    13    15    2
    26    15    16    1
    27    16    17    2
    28     4     5    1
    29     5     6    1
    30    30    22   am
    31     6     1    1
    32    29    24    1
    33    17     7    1
    34    17    11    1
@<TRIPOS>MOLECULE
*****
 30 34 0 0 0
SMALL
GASTEIGER

@<TRIPOS>ATOM
      1 N         143.0079  141.0861  162.0254 N.3     1  UNL1       -0.2725
      2 C         144.1818  141.2283  162.9483 C.3     1  UNL1        0.0738
      3 C         144.0259  140.9345  164.4109 C.3     1  UNL1        0.0376
      4 C         142.6961  140.4984  164.9508 C.3     1  UNL1        0.0841
      5 C         141.5222  140.3561  164.0279 C.3     1  UNL1        0.0376
      6 C         141.6781  140.6500  162.5653 C.3     1  UNL1        0.0738
      7 N         142.5403  140.2045  166.4134 N.am    1  UNL1       -0.2423
      8 C         143.1036  139.0189  167.1395 C.2     1  UNL1        0.3310
      9 O         143.9217  137.9191  166.5304 O.2     1  UNL1       -0.2501
     10 N         142.7052  139.1264  168.5816 N.am    1  UNL1       -0.1647
     11 C         141.8957  140.3783  168.7468 C.2     1  UNL1        0.0715
     12 C         141.2381  140.9976  169.9444 C.3     1  UNL1        0.0824
     13 C         140.4786  142.2833  169.8019 C.2     1  UNL1        0.0412
     14 CL        139.8211  142.9026  170.9994 Cl      1  UNL1       -0.0865
     15 C         140.3767  142.9496  168.4619 C.2     1  UNL1        0.0087
     16 C         141.0342  142.3303  167.2643 C.2     1  UNL1        0.0165
     17 C         141.7937  141.0446  167.4068 C.2     1  UNL1        0.0669
     18 C         143.1637  141.3799  160.5628 C.3     1  UNL1        0.0739
     19 C         143.2357  142.8006  160.0867 C.3     1  UNL1        0.0393
     20 C         142.0989  143.7408  160.3574 C.3     1  UNL1        0.1013
     21 O         144.2312  144.9042  162.5368 O.2     1  UNL1       -0.2501
     22 C         142.7649  144.6870  162.7670 C.2     1  UNL1        0.3310
     23 N         142.0213  144.9664  164.0394 N.am    1  UNL1       -0.1647
     24 C         140.5817  144.6043  163.8241 C.2     1  UNL1        0.0706
     25 C         139.3850  144.6678  164.7262 C.3     1  UNL1        0.0705
     26 C         138.0422  144.2281  164.2228 C.2     1  UNL1       -0.0199
     27 C         137.8960  143.7250  162.8173 C.2     1  UNL1       -0.0029
     28 C         139.0927  143.6615  161.9152 C.2     1  UNL1        0.0156
     29 C         140.4355  144.1012  162.4186 C.2     1  UNL1        0.0669
     30 N         141.7848  144.1523  161.7653 N.am    1  UNL1       -0.2407
@<TRIPOS>BOND
     1    21    22    2
     2    22    23    1
     3    23    24    2
     4    24    25    1
     5    25    26    1
     6    26    27    2
     7    27    28    1
     8    28    29    2
     9    29    30    1
    10    30    20    1
    11    20    19    1
    12    19    18    1
    13    18     1    1
    14     1     2    1
    15     2     3    1
    16     3     4    1
    17     4     7    1
    18     7     8   am
    19     8     9    2
    20     8    10    1
    21    10    11    2
    22    11    12    1
    23    12    13    1
    24    13    14    1
    25    13    15    2
    26    15    16    1
    27    16    17    2
    28     4     5    1
    29     5     6    1
    30    30    22   am
    31     6     1    1
    32    29    24    1
    33    17     7    1
    34    17    11    1
@<TRIPOS>MOLECULE
*****
 30 34 0 0 0
SMALL
GASTEIGER

@<TRIPOS>ATOM
      1 N         141.6523  138.4599  161.9605 N.3     1  UNL1       -0.2725
      2 C         141.1296  137.5777  163.0552 C.3     1  UNL1        0.0738
      3 C         141.3456  137.9556  164.4907 C.3     1  UNL1        0.0376
      4 C         142.0842  139.2159  164.8314 C.3     1  UNL1        0.0841
      5 C         142.6069  140.0981  163.7367 C.3     1  UNL1        0.0376
      6 C         142.3910  139.7201  162.3013 C.3     1  UNL1        0.0738
      7 N         142.3002  139.5938  166.2669 N.am    1  UNL1       -0.2423
      8 C         143.1627  138.8611  167.2514 C.2     1  UNL1        0.3310
      9 O         143.9607  137.6218  166.9733 O.2     1  UNL1       -0.2501
     10 N         143.0871  139.5853  168.5628 N.am    1  UNL1       -0.1647
     11 C         142.1779  140.7656  168.3888 C.2     1  UNL1        0.0715
     12 C         141.7300  141.8362  169.3391 C.3     1  UNL1        0.0824
     13 C         140.7957  142.9122  168.8704 C.2     1  UNL1        0.0412
     14 CL        140.3478  143.9828  169.8207 Cl      1  UNL1       -0.0865
     15 C         140.3094  142.9174  167.4515 C.2     1  UNL1        0.0087
     16 C         140.7573  141.8467  166.5012 C.2     1  UNL1        0.0165
     17 C         141.6915  140.7709  166.9698 C.2     1  UNL1        0.0669
     18 C         141.4364  138.0819  160.5251 C.3     1  UNL1        0.0739
     19 C         140.6091  138.9608  159.6344 C.3     1  UNL1        0.0393
     20 C         139.1946  139.2895  160.0094 C.3     1  UNL1        0.1013
     21 O         139.0222  141.9628  158.1456 O.2     1  UNL1       -0.2501
     22 C         138.7654  141.8993  159.6221 C.2     1  UNL1        0.3310
     23 N         138.3843  143.0534  160.5011 N.am    1  UNL1       -0.1647
     24 C         138.2279  142.5380  161.9011 C.2     1  UNL1        0.0706
     25 C         137.8633  143.2194  163.1867 C.3     1  UNL1        0.0705
     26 C         137.7832  142.4280  164.4584 C.2     1  UNL1       -0.0199
     27 C         138.0677  140.9553  164.4446 C.2     1  UNL1       -0.0029
     28 C         138.4323  140.2739  163.1590 C.2     1  UNL1        0.0156
     29 C         138.5125  141.0653  161.8873 C.2     1  UNL1        0.0669
     30 N         138.8446  140.6706  160.4788 N.am    1  UNL1       -0.2407
@<TRIPOS>BOND
     1    21    22    2
     2    22    23    1
     3    23    24    2
     4    24    25    1
     5    25    26    1
     6    26    27    2
     7    27    28    1
     8    28    29    2
     9    29    30    1
    10    30    20    1
    11    20    19    1
    12    19    18    1
    13    18     1    1
    14     1     2    1
    15     2     3    1
    16     3     4    1
    17     4     7    1
    18     7     8   am
    19     8     9    2
    20     8    10    1
    21    10    11    2
    22    11    12    1
    23    12    13    1
    24    13    14    1
    25    13    15    2
    26    15    16    1
    27    16    17    2
    28     4     5    1
    29     5     6    1
    30    30    22   am
    31     6     1    1
    32    29    24    1
    33    17     7    1
    34    17    11    1
@<TRIPOS>MOLECULE
*****
 30 34 0 0 0
SMALL
GASTEIGER

@<TRIPOS>ATOM
      1 N         141.2513  140.9363  161.6487 N.3     1  UNL1       -0.2725
      2 C         139.7919  140.6631  161.8619 C.3     1  UNL1        0.0738
      3 C         139.2807  140.3487  163.2366 C.3     1  UNL1        0.0376
      4 C         140.2289  140.3075  164.3981 C.3     1  UNL1        0.0841
      5 C         141.6883  140.5807  164.1849 C.3     1  UNL1        0.0376
      6 C         142.1995  140.8951  162.8102 C.3     1  UNL1        0.0738
      7 N         139.7177  139.9931  165.7728 N.am    1  UNL1       -0.2423
      8 C         138.9106  138.7893  166.1594 C.2     1  UNL1        0.3310
      9 O         138.4729  137.6886  165.2392 O.2     1  UNL1       -0.2501
     10 N         138.6179  138.8795  167.6278 N.am    1  UNL1       -0.1647
     11 C         139.2442  140.1390  168.1488 C.2     1  UNL1        0.0715
     12 C         139.2833  140.7481  169.5189 C.3     1  UNL1        0.0824
     13 C         140.0022  142.0456  169.7427 C.2     1  UNL1        0.0412
     14 CL        140.0413  142.6547  171.1129 Cl      1  UNL1       -0.0865
     15 C         140.6819  142.7338  168.5962 C.2     1  UNL1        0.0087
     16 C         140.6427  142.1246  167.2260 C.2     1  UNL1        0.0165
     17 C         139.9239  140.8273  167.0023 C.2     1  UNL1        0.0669
     18 C         141.7625  141.2507  160.2740 C.3     1  UNL1        0.0739
     19 C         142.4007  142.5796  159.9969 C.3     1  UNL1        0.0393
     20 C         141.6897  143.8459  160.3720 C.3     1  UNL1        0.1013
     21 O         144.0578  144.7839  162.4121 O.2     1  UNL1       -0.2501
     22 C         142.6045  144.6400  162.7548 C.2     1  UNL1        0.3310
     23 N         141.9846  144.9019  164.0953 N.am    1  UNL1       -0.1647
     24 C         140.5130  144.6326  163.9861 C.2     1  UNL1        0.0706
     25 C         139.3993  144.7221  164.9868 C.3     1  UNL1        0.0705
     26 C         137.9960  144.3833  164.5795 C.2     1  UNL1       -0.0199
     27 C         137.7064  143.9550  163.1714 C.2     1  UNL1       -0.0029
     28 C         138.8201  143.8655  162.1707 C.2     1  UNL1        0.0156
     29 C         140.2234  144.2043  162.5780 C.2     1  UNL1        0.0669
     30 N         141.5161  144.2088  161.8170 N.am    1  UNL1       -0.2407
@<TRIPOS>BOND
     1    21    22    2
     2    22    23    1
     3    23    24    2
     4    24    25    1
     5    25    26    1
     6    26    27    2
     7    27    28    1
     8    28    29    2
     9    29    30    1
    10    30    20    1
    11    20    19    1
    12    19    18    1
    13    18     1    1
    14     1     2    1
    15     2     3    1
    16     3     4    1
    17     4     7    1
    18     7     8   am
    19     8     9    2
    20     8    10    1
    21    10    11    2
    22    11    12    1
    23    12    13    1
    24    13    14    1
    25    13    15    2
    26    15    16    1
    27    16    17    2
    28     4     5    1
    29     5     6    1
    30    30    22   am
    31     6     1    1
    32    29    24    1
    33    17     7    1
    34    17    11    1
@<TRIPOS>MOLECULE
*****
 30 34 0 0 0
SMALL
GASTEIGER

@<TRIPOS>ATOM
      1 N         138.9881  142.0349  161.6109 N.3     1  UNL1       -0.2725
      2 C         138.1172  142.5470  162.7196 C.3     1  UNL1        0.0738
      3 C         138.3664  142.1091  164.1324 C.3     1  UNL1        0.0376
      4 C         139.4866  141.1591  164.4366 C.3     1  UNL1        0.0841
      5 C         140.3576  140.6470  163.3280 C.3     1  UNL1        0.0376
      6 C         140.1084  141.0849  161.9152 C.3     1  UNL1        0.0738
      7 N         139.7358  140.7212  165.8495 N.am    1  UNL1       -0.2423
      8 C         138.8942  139.7606  166.6363 C.2     1  UNL1        0.3310
      9 O         137.6557  139.0692  166.1484 O.2     1  UNL1       -0.2501
     10 N         139.5086  139.6127  167.9966 N.am    1  UNL1       -0.1647
     11 C         140.7299  140.4819  168.0506 C.2     1  UNL1        0.0715
     12 C         141.7323  140.7381  169.1367 C.3     1  UNL1        0.0824
     13 C         142.8751  141.6794  168.8957 C.2     1  UNL1        0.0412
     14 CL        143.8776  141.9356  169.9818 Cl      1  UNL1       -0.0865
     15 C         143.0155  142.3644  167.5687 C.2     1  UNL1        0.0087
     16 C         142.0131  142.1082  166.4826 C.2     1  UNL1        0.0165
     17 C         140.8703  141.1670  166.7236 C.2     1  UNL1        0.0669
     18 C         138.7389  142.4728  160.1981 C.3     1  UNL1        0.0739
     19 C         139.8920  142.8453  159.3139 C.3     1  UNL1        0.0393
     20 C         140.5852  144.1622  159.5002 C.3     1  UNL1        0.1013
     21 O         139.0305  146.3718  161.3306 O.2     1  UNL1       -0.2501
     22 C         140.2735  145.6256  161.7153 C.2     1  UNL1        0.3310
     23 N         141.0202  145.7640  163.0088 N.am    1  UNL1       -0.1647
     24 C         142.1964  144.8340  162.9670 C.2     1  UNL1        0.0706
     25 C         143.2828  144.5444  163.9598 C.3     1  UNL1        0.0705
     26 C         144.3494  143.5416  163.6332 C.2     1  UNL1       -0.0199
     27 C         144.3296  142.8283  162.3138 C.2     1  UNL1       -0.0029
     28 C         143.2431  143.1179  161.3209 C.2     1  UNL1        0.0156
     29 C         142.1766  144.1207  161.6475 C.2     1  UNL1        0.0669
     30 N         140.9882  144.6100  160.8740 N.am    1  UNL1       -0.2407
@<TRIPOS>BOND
     1    21    22    2
     2    22    23    1
     3    23    24    2
     4    24    25    1
     5    25    26    1
     6    26    27    2
     7    27    28    1
     8    28    29    2
     9    29    30    1
    10    30    20    1
    11    20    19    1
    12    19    18    1
    13    18     1    1
    14     1     2    1
    15     2     3    1
    16     3     4    1
    17     4     7    1
    18     7     8   am
    19     8     9    2
    20     8    10    1
    21    10    11    2
    22    11    12    1
    23    12    13    1
    24    13    14    1
    25    13    15    2
    26    15    16    1
    27    16    17    2
    28     4     5    1
    29     5     6    1
    30    30    22   am
    31     6     1    1
    32    29    24    1
    33    17     7    1
    34    17    11    1
@<TRIPOS>MOLECULE
*****
 30 34 0 0 0
SMALL
GASTEIGER

@<TRIPOS>ATOM
      1 N         139.1081  138.5765  162.2775 N.3     1  UNL1       -0.2725
      2 C         138.1534  139.6073  162.8026 C.3     1  UNL1        0.0738
      3 C         138.1307  139.9318  164.2669 C.3     1  UNL1        0.0376
      4 C         139.0628  139.2254  165.2062 C.3     1  UNL1        0.0841
      5 C         140.0175  138.1946  164.6811 C.3     1  UNL1        0.0376
      6 C         140.0402  137.8701  163.2168 C.3     1  UNL1        0.0738
      7 N         139.0400  139.5499  166.6705 N.am    1  UNL1       -0.2423
      8 C         138.1053  138.9668  167.6884 C.2     1  UNL1        0.3310
      9 O         137.0291  137.9567  167.4207 O.2     1  UNL1       -0.2501
     10 N         138.4356  139.5710  169.0210 N.am    1  UNL1       -0.1647
     11 C         139.5746  140.5276  168.8266 C.2     1  UNL1        0.0715
     12 C         140.3198  141.4088  169.7848 C.3     1  UNL1        0.0824
     13 C         141.4386  142.2770  169.2902 C.2     1  UNL1        0.0412
     14 CL        142.1838  143.1583  170.2484 Cl      1  UNL1       -0.0865
     15 C         141.8121  142.2640  167.8376 C.2     1  UNL1        0.0087
     16 C         141.0669  141.3828  166.8794 C.2     1  UNL1        0.0165
     17 C         139.9481  140.5146  167.3739 C.2     1  UNL1        0.0669
     18 C         139.1309  138.2520  160.8132 C.3     1  UNL1        0.0739
     19 C         140.3353  138.5950  159.9876 C.3     1  UNL1        0.0393
     20 C         140.4333  139.9373  159.3254 C.3     1  UNL1        0.1013
     21 O         137.8651  141.6160  158.2138 O.2     1  UNL1       -0.2501
     22 C         138.6379  141.9127  159.4647 C.2     1  UNL1        0.3310
     23 N         138.3660  143.0331  160.4242 N.am    1  UNL1       -0.1647
     24 C         139.3784  142.9539  161.5282 C.2     1  UNL1        0.0706
     25 C         139.5988  143.7955  162.7501 C.3     1  UNL1        0.0705
     26 C         140.7169  143.4678  163.6947 C.2     1  UNL1       -0.0199
     27 C         141.6146  142.2984  163.4175 C.2     1  UNL1       -0.0029
     28 C         141.3941  141.4568  162.1956 C.2     1  UNL1        0.0156
     29 C         140.2760  141.7846  161.2510 C.2     1  UNL1        0.0669
     30 N         139.8184  141.1411  159.9756 N.am    1  UNL1       -0.2407
@<TRIPOS>BOND
     1    21    22    2
     2    22    23    1
     3    23    24    2
     4    24    25    1
     5    25    26    1
     6    26    27    2
     7    27    28    1
     8    28    29    2
     9    29    30    1
    10    30    20    1
    11    20    19    1
    12    19    18    1
    13    18     1    1
    14     1     2    1
    15     2     3    1
    16     3     4    1
    17     4     7    1
    18     7     8   am
    19     8     9    2
    20     8    10    1
    21    10    11    2
    22    11    12    1
    23    12    13    1
    24    13    14    1
    25    13    15    2
    26    15    16    1
    27    16    17    2
    28     4     5    1
    29     5     6    1
    30    30    22   am
    31     6     1    1
    32    29    24    1
    33    17     7    1
    34    17    11    1
@<TRIPOS>MOLECULE
*****
 30 34 0 0 0
SMALL
GASTEIGER

@<TRIPOS>ATOM
      1 N         137.9899  139.8577  162.0403 N.3     1  UNL1       -0.2725
      2 C         137.6640  141.0893  162.8320 C.3     1  UNL1        0.0738
      3 C         137.9312  141.1250  164.3076 C.3     1  UNL1        0.0376
      4 C         138.5243  139.9290  164.9915 C.3     1  UNL1        0.0841
      5 C         138.8503  138.6974  164.1998 C.3     1  UNL1        0.0376
      6 C         138.5831  138.6617  162.7242 C.3     1  UNL1        0.0738
      7 N         138.7915  139.9646  166.4671 N.am    1  UNL1       -0.2423
      8 C         138.0927  139.1433  167.5097 C.2     1  UNL1        0.3310
      9 O         137.0041  138.1421  167.2599 O.2     1  UNL1       -0.2501
     10 N         138.6737  139.4989  168.8461 N.am    1  UNL1       -0.1647
     11 C         139.7316  140.5400  168.6294 C.2     1  UNL1        0.0715
     12 C         140.6380  141.2632  169.5809 C.3     1  UNL1        0.0824
     13 C         141.6172  142.2742  169.0621 C.2     1  UNL1        0.0412
     14 CL        142.5237  142.9973  170.0137 Cl      1  UNL1       -0.0865
     15 C         141.6900  142.5620  167.5918 C.2     1  UNL1        0.0087
     16 C         140.7836  141.8388  166.6403 C.2     1  UNL1        0.0165
     17 C         139.8044  140.8279  167.1590 C.2     1  UNL1        0.0669
     18 C         137.7228  139.8221  160.5647 C.3     1  UNL1        0.0739
     19 C         138.2771  140.8958  159.6759 C.3     1  UNL1        0.0393
     20 C         139.7596  141.1060  159.5887 C.3     1  UNL1        0.1013
     21 O         141.8104  139.1625  161.2218 O.2     1  UNL1       -0.2501
     22 C         141.4806  140.5846  161.5664 C.2     1  UNL1        0.3310
     23 N         142.0355  141.3631  162.7223 N.am    1  UNL1       -0.1647
     24 C         141.4359  142.7376  162.6860 C.2     1  UNL1        0.0706
     25 C         141.6131  143.9337  163.5736 C.3     1  UNL1        0.0705
     26 C         140.8648  145.2007  163.2829 C.2     1  UNL1       -0.0199
     27 C         139.9392  145.2717  162.1047 C.2     1  UNL1       -0.0029
     28 C         139.7620  144.0756  161.2170 C.2     1  UNL1        0.0156
     29 C         140.5104  142.8085  161.5077 C.2     1  UNL1        0.0669
     30 N         140.5380  141.4779  160.8158 N.am    1  UNL1       -0.2407
@<TRIPOS>BOND
     1    21    22    2
     2    22    23    1
     3    23    24    2
     4    24    25    1
     5    25    26    1
     6    26    27    2
     7    27    28    1
     8    28    29    2
     9    29    30    1
    10    30    20    1
    11    20    19    1
    12    19    18    1
    13    18     1    1
    14     1     2    1
    15     2     3    1
    16     3     4    1
    17     4     7    1
    18     7     8   am
    19     8     9    2
    20     8    10    1
    21    10    11    2
    22    11    12    1
    23    12    13    1
    24    13    14    1
    25    13    15    2
    26    15    16    1
    27    16    17    2
    28     4     5    1
    29     5     6    1
    30    30    22   am
    31     6     1    1
    32    29    24    1
    33    17     7    1
    34    17    11    1
@<TRIPOS>MOLECULE
*****
 30 34 0 0 0
SMALL
GASTEIGER

@<TRIPOS>ATOM
      1 N         143.6887  141.4956  162.4970 N.3     1  UNL1       -0.2725
      2 C         144.1911  142.3404  163.6300 C.3     1  UNL1        0.0738
      3 C         143.8490  141.9781  165.0448 C.3     1  UNL1        0.0376
      4 C         143.0044  140.7710  165.3266 C.3     1  UNL1        0.0841
      5 C         142.5020  139.9261  164.1936 C.3     1  UNL1        0.0376
      6 C         142.8441  140.2884  162.7788 C.3     1  UNL1        0.0738
      7 N         142.6623  140.4087  166.7414 N.am    1  UNL1       -0.2423
      8 C         143.1016  139.1706  167.4654 C.2     1  UNL1        0.3310
      9 O         143.9601  138.0774  166.9017 O.2     1  UNL1       -0.2501
     10 N         142.5316  139.2176  168.8521 N.am    1  UNL1       -0.1647
     11 C         141.7400  140.4847  168.9851 C.2     1  UNL1        0.0715
     12 C         140.9560  141.0634  170.1256 C.3     1  UNL1        0.0824
     13 C         140.2528  142.3782  169.9615 C.2     1  UNL1        0.0412
     14 CL        139.4689  142.9569  171.1019 Cl      1  UNL1       -0.0865
     15 C         140.3336  143.1143  168.6570 C.2     1  UNL1        0.0087
     16 C         141.1176  142.5357  167.5166 C.2     1  UNL1        0.0165
     17 C         141.8207  141.2209  167.6806 C.2     1  UNL1        0.0669
     18 C         144.0309  141.8579  161.0822 C.3     1  UNL1        0.0739
     19 C         142.9601  142.3497  160.1540 C.3     1  UNL1        0.0393
     20 C         142.2015  143.6018  160.4804 C.3     1  UNL1        0.1013
     21 O         139.7771  142.7014  158.4901 O.2     1  UNL1       -0.2501
     22 C         139.6331  143.1116  159.9257 C.2     1  UNL1        0.3310
     23 N         138.3493  143.1801  160.6986 N.am    1  UNL1       -0.1647
     24 C         138.6702  143.6363  162.0910 C.2     1  UNL1        0.0706
     25 C         137.8044  143.8848  163.2904 C.3     1  UNL1        0.0705
     26 C         138.4207  144.3469  164.5775 C.2     1  UNL1       -0.0199
     27 C         139.9028  144.5604  164.6652 C.2     1  UNL1       -0.0029
     28 C         140.7687  144.3118  163.4659 C.2     1  UNL1        0.0156
     29 C         140.1524  143.8498  162.1788 C.2     1  UNL1        0.0669
     30 N         140.7474  143.5255  160.8405 N.am    1  UNL1       -0.2407
@<TRIPOS>BOND
     1    21    22    2
     2    22    23    1
     3    23    24    2
     4    24    25    1
     5    25    26    1
     6    26    27    2
     7    27    28    1
     8    28    29    2
     9    29    30    1
    10    30    20    1
    11    20    19    1
    12    19    18    1
    13    18     1    1
    14     1     2    1
    15     2     3    1
    16     3     4    1
    17     4     7    1
    18     7     8   am
    19     8     9    2
    20     8    10    1
    21    10    11    2
    22    11    12    1
    23    12    13    1
    24    13    14    1
    25    13    15    2
    26    15    16    1
    27    16    17    2
    28     4     5    1
    29     5     6    1
    30    30    22   am
    31     6     1    1
    32    29    24    1
    33    17     7    1
    34    17    11    1
@<TRIPOS>MOLECULE
*****
 30 34 0 0 0
SMALL
GASTEIGER

@<TRIPOS>ATOM
      1 N         140.7402  139.2662  161.8539 N.3     1  UNL1       -0.2725
      2 C         140.5411  140.6604  162.3702 C.3     1  UNL1        0.0738
      3 C         140.3482  140.8959  163.8390 C.3     1  UNL1        0.0376
      4 C         140.3545  139.7372  164.7915 C.3     1  UNL1        0.0841
      5 C         140.5536  138.3430  164.2752 C.3     1  UNL1        0.0376
      6 C         140.7465  138.1075  162.8065 C.3     1  UNL1        0.0738
      7 N         140.1616  139.9727  166.2603 N.am    1  UNL1       -0.2423
      8 C         139.0399  139.4363  167.0995 C.2     1  UNL1        0.3310
      9 O         137.9142  138.5701  166.6172 O.2     1  UNL1       -0.2501
     10 N         139.2416  139.9180  168.5056 N.am    1  UNL1       -0.1647
     11 C         140.4879  140.7522  168.5355 C.2     1  UNL1        0.0715
     12 C         141.1785  141.4854  169.6470 C.3     1  UNL1        0.0824
     13 C         142.4377  142.2524  169.3708 C.2     1  UNL1        0.0412
     14 CL        143.1283  142.9856  170.4824 Cl      1  UNL1       -0.0865
     15 C         143.0062  142.2862  167.9832 C.2     1  UNL1        0.0087
     16 C         142.3156  141.5530  166.8717 C.2     1  UNL1        0.0165
     17 C         141.0565  140.7860  167.1478 C.2     1  UNL1        0.0669
     18 C         140.9331  139.0307  160.3851 C.3     1  UNL1        0.0739
     19 C         142.0029  138.0926  159.9101 C.3     1  UNL1        0.0393
     20 C         143.4125  138.5805  159.7526 C.3     1  UNL1        0.1013
     21 O         143.5584  141.3404  158.0173 O.2     1  UNL1       -0.2501
     22 C         143.8686  141.2000  159.4781 C.2     1  UNL1        0.3310
     23 N         144.3003  142.3035  160.3978 N.am    1  UNL1       -0.1647
     24 C         144.5000  141.7170  161.7639 C.2     1  UNL1        0.0706
     25 C         144.9227  142.3284  163.0667 C.3     1  UNL1        0.0705
     26 C         145.0372  141.4738  164.2941 C.2     1  UNL1       -0.0199
     27 C         144.7289  140.0077  164.2186 C.2     1  UNL1       -0.0029
     28 C         144.3062  139.3963  162.9158 C.2     1  UNL1        0.0156
     29 C         144.1917  140.2509  161.6884 C.2     1  UNL1        0.0669
     30 N         143.8015  139.9314  160.2758 N.am    1  UNL1       -0.2407
@<TRIPOS>BOND
     1    21    22    2
     2    22    23    1
     3    23    24    2
     4    24    25    1
     5    25    26    1
     6    26    27    2
     7    27    28    1
     8    28    29    2
     9    29    30    1
    10    30    20    1
    11    20    19    1
    12    19    18    1
    13    18     1    1
    14     1     2    1
    15     2     3    1
    16     3     4    1
    17     4     7    1
    18     7     8   am
    19     8     9    2
    20     8    10    1
    21    10    11    2
    22    11    12    1
    23    12    13    1
    24    13    14    1
    25    13    15    2
    26    15    16    1
    27    16    17    2
    28     4     5    1
    29     5     6    1
    30    30    22   am
    31     6     1    1
    32    29    24    1
    33    17     7    1
    34    17    11    1
