@<TRIPOS>MOLECULE
*****
 28 31 0 0 0
SMALL
GASTEIGER

@<TRIPOS>ATOM
      1 C         139.7436  141.0483  166.6452 C.2     1  UNL1       -0.0021
      2 C         139.1785  139.6588  166.6343 C.2     1  UNL1        0.0942
      3 N         138.2449  139.5473  165.4656 N.2     1  UNL1       -0.2482
      4 C         138.2329  140.8679  164.7543 C.2     1  UNL1        0.0633
      5 C         137.4982  141.3455  163.5369 C.3     1  UNL1        0.0753
      6 C         137.6898  142.7507  163.0485 C.2     1  UNL1        0.0203
      7 C         138.6160  143.6784  163.7776 C.2     1  UNL1        0.1317
      8 C         139.3507  143.2008  164.9950 C.2     1  UNL1        0.0407
      9 C         139.1591  141.7955  165.4833 C.2     1  UNL1        0.0148
     10 C         142.6770  142.6874  169.6383 C.3     1  UNL1        0.0540
     11 C         143.1064  141.6228  168.6728 C.3     1  UNL1        0.0160
     12 C         142.1286  141.0764  167.6751 C.3     1  UNL1        0.0058
     13 C         140.7214  141.5946  167.6429 C.3     1  UNL1        0.0240
     14 C         140.2919  142.6593  168.6085 C.3     1  UNL1        0.0058
     15 C         141.2698  143.2056  169.6062 C.3     1  UNL1        0.0160
     16 C         145.1243  143.2116  170.3356 C.3     1  UNL1        0.0858
     17 N         143.6548  143.2337  170.6360 N.3     1  UNL1       -0.2974
     18 H         143.4011  144.2090  170.7933 H       1  UNL1        0.1232
     19 N         138.8076  145.0837  163.2891 N.pl3   1  UNL1       -0.1992
     20 H         138.2280  145.8050  163.6253 H       1  UNL1        0.2985
     21 C         139.8822  145.3900  162.2885 C.2     1  UNL1        0.3224
     22 N         139.5347  146.0775  161.0015 N.2     1  UNL1       -0.0985
     23 H         138.6013  146.3277  160.8135 H       1  UNL1        0.3633
     24 C         141.3045  145.0088  162.5750 C.ar    1  UNL1        0.1114
     25 C         142.1056  145.4278  163.7719 C.ar    1  UNL1        0.0144
     26 C         143.4715  144.8196  163.6515 C.ar    1  UNL1        0.0077
     27 C         143.5145  144.0247  162.3801 C.ar    1  UNL1        0.0357
     28 S         142.1752  144.1417  161.7148 S.2     1  UNL1       -0.0792
@<TRIPOS>BOND
     1    16    17    1
     2    10    17    1
     3    10    11    1
     4    11    12    1
     5    12    13    1
     6    13     1    1
     7     1     2    2
     8     2     3    1
     9     3     4    2
    10     4     5    1
    11     5     6    1
    12     6     7    2
    13     7    19    1
    14    19    21    1
    15    21    22    2
    16    21    24    1
    17    24    25   ar
    18    25    26   ar
    19    26    27   ar
    20    27    28   ar
    21     7     8    1
    22     8     9    2
    23    13    14    1
    24    14    15    1
    25    15    10    1
    26     9     1    1
    27     9     4    1
    28    28    24   ar
    29    17    18    1
    30    19    20    1
    31    22    23    1
@<TRIPOS>MOLECULE
*****
 28 31 0 0 0
SMALL
GASTEIGER

@<TRIPOS>ATOM
      1 C         143.0095  142.6968  165.9251 C.2     1  UNL1       -0.0021
      2 C         144.2018  143.4743  165.4520 C.2     1  UNL1        0.0942
      3 N         143.7887  144.2703  164.2496 N.2     1  UNL1       -0.2482
      4 C         142.3411  143.9847  163.9796 C.2     1  UNL1        0.0633
      5 C         141.3993  144.4846  162.9247 C.3     1  UNL1        0.0753
      6 C         139.9758  144.0120  162.9052 C.2     1  UNL1        0.0203
      7 C         139.4942  143.0395  163.9408 C.2     1  UNL1        0.1317
      8 C         140.4361  142.5396  164.9957 C.2     1  UNL1        0.0407
      9 C         141.8595  143.0122  165.0152 C.2     1  UNL1        0.0148
     10 C         142.9014  139.9075  169.4548 C.3     1  UNL1        0.0540
     11 C         142.6527  139.3789  168.0733 C.3     1  UNL1        0.0160
     12 C         142.6887  140.3087  166.8968 C.3     1  UNL1        0.0058
     13 C         142.9735  141.7670  167.1017 C.3     1  UNL1        0.0240
     14 C         143.2222  142.2957  168.4833 C.3     1  UNL1        0.0058
     15 C         143.1862  141.3659  169.6598 C.3     1  UNL1        0.0160
     16 C         143.3121  137.5543  170.4763 C.3     1  UNL1        0.0858
     17 N         142.8654  138.9778  170.6314 N.3     1  UNL1       -0.2974
     18 H         143.4533  139.3939  171.3536 H       1  UNL1        0.1232
     19 N         138.0707  142.5669  163.9213 N.pl3   1  UNL1       -0.1992
     20 H         137.3520  143.1560  164.2463 H       1  UNL1        0.2985
     21 C         137.7424  141.1967  163.4067 C.2     1  UNL1        0.3224
     22 N         136.9664  141.0401  162.1326 N.2     1  UNL1       -0.0985
     23 H         136.6727  141.8366  161.6341 H       1  UNL1        0.3633
     24 C         138.1899  139.9831  164.1663 C.ar    1  UNL1        0.1114
     25 C         138.1073  139.7928  165.6519 C.ar    1  UNL1        0.0144
     26 C         138.6650  138.4388  165.9774 C.ar    1  UNL1        0.0077
     27 C         139.0921  137.7924  164.6929 C.ar    1  UNL1        0.0357
     28 S         138.7985  138.7468  163.5736 S.2     1  UNL1       -0.0792
@<TRIPOS>BOND
     1    16    17    1
     2    10    17    1
     3    10    11    1
     4    11    12    1
     5    12    13    1
     6    13     1    1
     7     1     2    2
     8     2     3    1
     9     3     4    2
    10     4     5    1
    11     5     6    1
    12     6     7    2
    13     7    19    1
    14    19    21    1
    15    21    22    2
    16    21    24    1
    17    24    25   ar
    18    25    26   ar
    19    26    27   ar
    20    27    28   ar
    21     7     8    1
    22     8     9    2
    23    13    14    1
    24    14    15    1
    25    15    10    1
    26     9     1    1
    27     9     4    1
    28    28    24   ar
    29    17    18    1
    30    19    20    1
    31    22    23    1
@<TRIPOS>MOLECULE
*****
 28 31 0 0 0
SMALL
GASTEIGER

@<TRIPOS>ATOM
      1 C         139.0350  140.2599  165.2190 C.2     1  UNL1       -0.0021
      2 C         138.8957  138.8545  164.7136 C.2     1  UNL1        0.0942
      3 N         138.4911  138.9188  163.2706 N.2     1  UNL1       -0.2482
      4 C         138.3805  140.3640  162.8842 C.2     1  UNL1        0.0633
      5 C         138.0171  141.0323  161.5914 C.3     1  UNL1        0.0753
      6 C         137.9898  142.5294  161.5028 C.2     1  UNL1        0.0203
      7 C         138.3260  143.3582  162.7070 C.2     1  UNL1        0.1317
      8 C         138.6894  142.6899  163.9998 C.2     1  UNL1        0.0407
      9 C         138.7167  141.1928  164.0883 C.2     1  UNL1        0.0148
     10 C         140.2034  141.4658  169.3940 C.3     1  UNL1        0.0540
     11 C         139.3915  140.2243  169.1714 C.3     1  UNL1        0.0160
     12 C         139.0021  139.8224  167.7797 C.3     1  UNL1        0.0058
     13 C         139.4245  140.6618  166.6106 C.3     1  UNL1        0.0240
     14 C         140.2364  141.9034  166.8333 C.3     1  UNL1        0.0058
     15 C         140.6258  142.3053  168.2250 C.3     1  UNL1        0.0160
     16 C         142.0397  141.9001  171.1799 C.3     1  UNL1        0.0858
     17 N         140.5928  141.8678  170.7857 N.3     1  UNL1       -0.2974
     18 H         140.2261  142.8079  170.9341 H       1  UNL1        0.1232
     19 N         138.2987  144.8554  162.6184 N.pl3   1  UNL1       -0.1992
     20 H         137.5008  145.3514  162.9123 H       1  UNL1        0.2985
     21 C         139.4872  145.5967  162.0818 C.2     1  UNL1        0.3224
     22 N         139.2891  146.7908  161.1960 N.2     1  UNL1       -0.0985
     23 H         138.3789  147.0881  160.9667 H       1  UNL1        0.3633
     24 C         140.8740  145.1438  162.4311 C.ar    1  UNL1        0.1114
     25 C         141.5617  145.3459  163.7487 C.ar    1  UNL1        0.0144
     26 C         142.9293  144.7364  163.6561 C.ar    1  UNL1        0.0077
     27 C         143.0865  144.1576  162.2811 C.ar    1  UNL1        0.0357
     28 S         141.8163  144.4094  161.5241 S.2     1  UNL1       -0.0792
@<TRIPOS>BOND
     1    16    17    1
     2    10    17    1
     3    10    11    1
     4    11    12    1
     5    12    13    1
     6    13     1    1
     7     1     2    2
     8     2     3    1
     9     3     4    2
    10     4     5    1
    11     5     6    1
    12     6     7    2
    13     7    19    1
    14    19    21    1
    15    21    22    2
    16    21    24    1
    17    24    25   ar
    18    25    26   ar
    19    26    27   ar
    20    27    28   ar
    21     7     8    1
    22     8     9    2
    23    13    14    1
    24    14    15    1
    25    15    10    1
    26     9     1    1
    27     9     4    1
    28    28    24   ar
    29    17    18    1
    30    19    20    1
    31    22    23    1
@<TRIPOS>MOLECULE
*****
 28 31 0 0 0
SMALL
GASTEIGER

@<TRIPOS>ATOM
      1 C         143.3377  140.9685  165.3199 C.2     1  UNL1       -0.0021
      2 C         144.4283  140.0913  164.7804 C.2     1  UNL1        0.0942
      3 N         145.0364  140.7830  163.5964 N.2     1  UNL1       -0.2482
      4 C         144.3216  142.0877  163.4042 C.2     1  UNL1        0.0633
      5 C         144.4911  143.1861  162.3969 C.3     1  UNL1        0.0753
      6 C         143.6108  144.3991  162.4548 C.2     1  UNL1        0.0203
      7 C         142.5609  144.5138  163.5200 C.2     1  UNL1        0.1317
      8 C         142.3914  143.4154  164.5273 C.2     1  UNL1        0.0407
      9 C         143.2718  142.2023  164.4694 C.2     1  UNL1        0.0148
     10 C         140.7228  140.0585  168.8674 C.3     1  UNL1        0.0540
     11 C         140.1790  139.9110  167.4773 C.3     1  UNL1        0.0160
     12 C         141.0506  140.2143  166.2948 C.3     1  UNL1        0.0058
     13 C         142.4661  140.6652  166.5024 C.3     1  UNL1        0.0240
     14 C         143.0099  140.8127  167.8926 C.3     1  UNL1        0.0058
     15 C         142.1383  140.5094  169.0751 C.3     1  UNL1        0.0160
     16 C         138.4671  140.3282  170.1281 C.3     1  UNL1        0.0858
     17 N         139.8511  139.7552  170.0499 N.3     1  UNL1       -0.2974
     18 H         139.7526  138.7408  170.0905 H       1  UNL1        0.1232
     19 N         141.6806  145.7270  163.5779 N.pl3   1  UNL1       -0.1992
     20 H         141.9884  146.5367  164.0457 H       1  UNL1        0.2985
     21 C         140.3312  145.7064  162.9230 C.2     1  UNL1        0.3224
     22 N         139.9878  146.7288  161.8806 N.2     1  UNL1       -0.0985
     23 H         140.6480  147.4134  161.6263 H       1  UNL1        0.3633
     24 C         139.3253  144.6633  163.3106 C.ar    1  UNL1        0.1114
     25 C         138.7685  144.4434  164.6860 C.ar    1  UNL1        0.0144
     26 C         137.7986  143.3012  164.6162 C.ar    1  UNL1        0.0077
     27 C         137.7561  142.8152  163.1977 C.ar    1  UNL1        0.0357
     28 S         138.6996  143.6570  162.3908 S.2     1  UNL1       -0.0792
@<TRIPOS>BOND
     1    16    17    1
     2    10    17    1
     3    10    11    1
     4    11    12    1
     5    12    13    1
     6    13     1    1
     7     1     2    2
     8     2     3    1
     9     3     4    2
    10     4     5    1
    11     5     6    1
    12     6     7    2
    13     7    19    1
    14    19    21    1
    15    21    22    2
    16    21    24    1
    17    24    25   ar
    18    25    26   ar
    19    26    27   ar
    20    27    28   ar
    21     7     8    1
    22     8     9    2
    23    13    14    1
    24    14    15    1
    25    15    10    1
    26     9     1    1
    27     9     4    1
    28    28    24   ar
    29    17    18    1
    30    19    20    1
    31    22    23    1
@<TRIPOS>MOLECULE
*****
 28 31 0 0 0
SMALL
GASTEIGER

@<TRIPOS>ATOM
      1 C         143.5704  141.6724  164.9445 C.2     1  UNL1       -0.0021
      2 C         144.8167  142.3759  164.4954 C.2     1  UNL1        0.0942
      3 N         145.3733  141.6279  163.3203 N.2     1  UNL1       -0.2482
      4 C         144.4710  140.4621  163.0433 C.2     1  UNL1        0.0633
      5 C         144.5201  139.3791  162.0066 C.3     1  UNL1        0.0753
      6 C         143.4549  138.3236  161.9738 C.2     1  UNL1        0.0203
      7 C         142.3406  138.3510  162.9776 C.2     1  UNL1        0.1317
      8 C         142.2915  139.4340  164.0142 C.2     1  UNL1        0.0407
      9 C         143.3567  140.4896  164.0470 C.2     1  UNL1        0.0148
     10 C         140.9348  142.8954  168.3808 C.3     1  UNL1        0.0540
     11 C         142.3634  142.5123  168.6306 C.3     1  UNL1        0.0160
     12 C         143.2419  142.1046  167.4851 C.3     1  UNL1        0.0058
     13 C         142.6919  142.0800  166.0899 C.3     1  UNL1        0.0240
     14 C         141.2632  142.4631  165.8401 C.3     1  UNL1        0.0058
     15 C         140.3847  142.8708  166.9855 C.3     1  UNL1        0.0160
     16 C         140.0600  142.5039  170.7956 C.3     1  UNL1        0.0858
     17 N         140.0563  143.3030  169.5263 N.3     1  UNL1       -0.2974
     18 H         140.3224  144.2552  169.7770 H       1  UNL1        0.1232
     19 N         141.2754  137.2954  162.9447 N.pl3   1  UNL1       -0.1992
     20 H         141.5250  136.3433  162.9672 H       1  UNL1        0.2985
     21 C         139.8299  137.6904  162.8774 C.2     1  UNL1        0.3224
     22 N         139.0703  137.5399  161.5928 N.2     1  UNL1       -0.0985
     23 H         139.5204  137.1819  160.7938 H       1  UNL1        0.3633
     24 C         139.1440  138.2359  164.0949 C.ar    1  UNL1        0.1114
     25 C         138.8162  137.4675  165.3407 C.ar    1  UNL1        0.0144
     26 C         138.1351  138.4022  166.2961 C.ar    1  UNL1        0.0077
     27 C         138.0421  139.7482  165.6405 C.ar    1  UNL1        0.0357
     28 S         138.6656  139.6454  164.2802 S.2     1  UNL1       -0.0792
@<TRIPOS>BOND
     1    16    17    1
     2    10    17    1
     3    10    11    1
     4    11    12    1
     5    12    13    1
     6    13     1    1
     7     1     2    2
     8     2     3    1
     9     3     4    2
    10     4     5    1
    11     5     6    1
    12     6     7    2
    13     7    19    1
    14    19    21    1
    15    21    22    2
    16    21    24    1
    17    24    25   ar
    18    25    26   ar
    19    26    27   ar
    20    27    28   ar
    21     7     8    1
    22     8     9    2
    23    13    14    1
    24    14    15    1
    25    15    10    1
    26     9     1    1
    27     9     4    1
    28    28    24   ar
    29    17    18    1
    30    19    20    1
    31    22    23    1
@<TRIPOS>MOLECULE
*****
 28 31 0 0 0
SMALL
GASTEIGER

@<TRIPOS>ATOM
      1 C         139.1939  143.1525  164.3899 C.2     1  UNL1       -0.0021
      2 C         137.8141  143.5983  164.0057 C.2     1  UNL1        0.0942
      3 N         137.9170  144.3721  162.7248 N.2     1  UNL1       -0.2482
      4 C         139.3602  144.4045  162.3174 C.2     1  UNL1        0.0633
      5 C         140.0577  145.0230  161.1423 C.3     1  UNL1        0.0753
      6 C         141.5444  144.8877  160.9963 C.2     1  UNL1        0.0203
      7 C         142.3336  144.1340  162.0254 C.2     1  UNL1        0.1317
      8 C         141.6361  143.5155  163.2005 C.2     1  UNL1        0.0407
      9 C         140.1494  143.6508  163.3465 C.2     1  UNL1        0.0148
     10 C         140.2766  140.7433  168.0333 C.3     1  UNL1        0.0540
     11 C         139.4854  140.1134  166.9254 C.3     1  UNL1        0.0160
     12 C         139.1245  140.9165  165.7110 C.3     1  UNL1        0.0058
     13 C         139.5547  142.3494  165.6043 C.3     1  UNL1        0.0240
     14 C         140.3459  142.9794  166.7122 C.3     1  UNL1        0.0058
     15 C         140.7068  142.1763  167.9267 C.3     1  UNL1        0.0160
     16 C         142.0615  139.5298  169.4795 C.3     1  UNL1        0.0858
     17 N         140.6374  139.9402  169.2477 N.3     1  UNL1       -0.2974
     18 H         140.3535  140.4894  170.0589 H       1  UNL1        0.1232
     19 N         143.8204  143.9987  161.8793 N.pl3   1  UNL1       -0.1992
     20 H         144.4088  144.7516  162.1162 H       1  UNL1        0.2985
     21 C         144.4106  142.7163  161.3724 C.2     1  UNL1        0.3224
     22 N         144.8332  142.6006  159.9378 N.2     1  UNL1       -0.0985
     23 H         144.7231  143.3664  159.3290 H       1  UNL1        0.3633
     24 C         144.5783  141.5495  162.3001 C.ar    1  UNL1        0.1114
     25 C         145.3781  141.5400  163.5691 C.ar    1  UNL1        0.0144
     26 C         145.2698  140.1719  164.1749 C.ar    1  UNL1        0.0077
     27 C         144.4031  139.3361  163.2803 C.ar    1  UNL1        0.0357
     28 S         143.9757  140.1875  162.1216 S.2     1  UNL1       -0.0792
@<TRIPOS>BOND
     1    16    17    1
     2    10    17    1
     3    10    11    1
     4    11    12    1
     5    12    13    1
     6    13     1    1
     7     1     2    2
     8     2     3    1
     9     3     4    2
    10     4     5    1
    11     5     6    1
    12     6     7    2
    13     7    19    1
    14    19    21    1
    15    21    22    2
    16    21    24    1
    17    24    25   ar
    18    25    26   ar
    19    26    27   ar
    20    27    28   ar
    21     7     8    1
    22     8     9    2
    23    13    14    1
    24    14    15    1
    25    15    10    1
    26     9     1    1
    27     9     4    1
    28    28    24   ar
    29    17    18    1
    30    19    20    1
    31    22    23    1
@<TRIPOS>MOLECULE
*****
 28 31 0 0 0
SMALL
GASTEIGER

@<TRIPOS>ATOM
      1 C         139.9581  139.3701  165.7833 C.2     1  UNL1       -0.0021
      2 C         138.7563  138.5644  165.3876 C.2     1  UNL1        0.0942
      3 N         139.1129  137.7693  164.1666 N.2     1  UNL1       -0.2482
      4 C         140.5350  138.0836  163.8078 C.2     1  UNL1        0.0633
      5 C         141.4218  137.5967  162.7003 C.3     1  UNL1        0.0753
      6 C         142.8309  138.0991  162.5920 C.2     1  UNL1        0.0203
      7 C         143.3533  139.0885  163.5912 C.2     1  UNL1        0.1317
      8 C         142.4665  139.5754  164.6987 C.2     1  UNL1        0.0407
      9 C         141.0574  139.0729  164.8070 C.2     1  UNL1        0.0148
     10 C         140.2197  142.1845  169.2849 C.3     1  UNL1        0.0540
     11 C         140.7478  142.6034  167.9449 C.3     1  UNL1        0.0160
     12 C         140.6606  141.6652  166.7777 C.3     1  UNL1        0.0058
     13 C         140.0453  140.3082  166.9505 C.3     1  UNL1        0.0240
     14 C         139.5171  139.8893  168.2905 C.3     1  UNL1        0.0058
     15 C         139.6044  140.8275  169.4577 C.3     1  UNL1        0.0160
     16 C         140.3094  144.6052  170.2241 C.3     1  UNL1        0.0858
     17 N         140.3069  143.1226  170.4521 N.3     1  UNL1       -0.2974
     18 H         139.5091  142.9187  171.0540 H       1  UNL1        0.1232
     19 N         144.7626  139.5909  163.4828 N.pl3   1  UNL1       -0.1992
     20 H         145.5109  139.0263  163.7834 H       1  UNL1        0.2985
     21 C         145.0315  140.9536  162.9166 C.2     1  UNL1        0.3224
     22 N         146.2403  141.7242  163.3583 N.2     1  UNL1       -0.0985
     23 H         146.8571  141.3355  164.0199 H       1  UNL1        0.3633
     24 C         144.0916  141.5459  161.9086 C.ar    1  UNL1        0.1114
     25 C         143.8990  141.0727  160.4983 C.ar    1  UNL1        0.0144
     26 C         142.8677  141.9496  159.8520 C.ar    1  UNL1        0.0077
     27 C         142.4231  142.9647  160.8629 C.ar    1  UNL1        0.0357
     28 S         143.1795  142.7151  162.1340 S.2     1  UNL1       -0.0792
@<TRIPOS>BOND
     1    16    17    1
     2    10    17    1
     3    10    11    1
     4    11    12    1
     5    12    13    1
     6    13     1    1
     7     1     2    2
     8     2     3    1
     9     3     4    2
    10     4     5    1
    11     5     6    1
    12     6     7    2
    13     7    19    1
    14    19    21    1
    15    21    22    2
    16    21    24    1
    17    24    25   ar
    18    25    26   ar
    19    26    27   ar
    20    27    28   ar
    21     7     8    1
    22     8     9    2
    23    13    14    1
    24    14    15    1
    25    15    10    1
    26     9     1    1
    27     9     4    1
    28    28    24   ar
    29    17    18    1
    30    19    20    1
    31    22    23    1
@<TRIPOS>MOLECULE
*****
 28 31 0 0 0
SMALL
GASTEIGER

@<TRIPOS>ATOM
      1 C         144.1524  141.4203  164.2464 C.2     1  UNL1       -0.0021
      2 C         145.6316  141.2901  164.0341 C.2     1  UNL1        0.0942
      3 N         145.9440  141.7640  162.6457 N.2     1  UNL1       -0.2482
      4 C         144.6580  142.1870  161.9998 C.2     1  UNL1        0.0633
      5 C         144.3522  142.7383  160.6388 C.3     1  UNL1        0.0753
      6 C         142.9390  143.0770  160.2670 C.2     1  UNL1        0.0203
      7 C         141.8317  142.8646  161.2563 C.2     1  UNL1        0.1317
      8 C         142.1375  142.3134  162.6174 C.2     1  UNL1        0.0407
      9 C         143.5507  141.9746  162.9891 C.2     1  UNL1        0.0148
     10 C         141.9130  140.3377  167.9965 C.3     1  UNL1        0.0540
     11 C         142.1436  141.7788  167.6502 C.3     1  UNL1        0.0160
     12 C         142.8900  142.1396  166.4002 C.3     1  UNL1        0.0058
     13 C         143.4059  141.0594  165.4964 C.3     1  UNL1        0.0240
     14 C         143.1753  139.6182  165.8427 C.3     1  UNL1        0.0058
     15 C         142.4288  139.2574  167.0928 C.3     1  UNL1        0.0160
     16 C         139.7166  140.3357  169.3843 C.3     1  UNL1        0.0858
     17 N         141.1665  139.9769  169.2466 N.3     1  UNL1       -0.2974
     18 H         141.2297  138.9636  169.3452 H       1  UNL1        0.1232
     19 N         140.4185  143.2034  160.8844 N.pl3   1  UNL1       -0.1992
     20 H         139.9133  142.6125  160.2804 H       1  UNL1        0.2985
     21 C         139.7752  144.4425  161.4328 C.2     1  UNL1        0.3224
     22 N         139.7425  145.6970  160.6112 N.2     1  UNL1       -0.0985
     23 H         140.1432  145.7072  159.7120 H       1  UNL1        0.3633
     24 C         139.1646  144.4270  162.8029 C.ar    1  UNL1        0.1114
     25 C         137.7915  143.9331  163.1506 C.ar    1  UNL1        0.0144
     26 C         137.5981  144.1036  164.6283 C.ar    1  UNL1        0.0077
     27 C         138.8516  144.7028  165.1938 C.ar    1  UNL1        0.0357
     28 S         139.8197  144.9027  164.0656 S.2     1  UNL1       -0.0792
@<TRIPOS>BOND
     1    16    17    1
     2    10    17    1
     3    10    11    1
     4    11    12    1
     5    12    13    1
     6    13     1    1
     7     1     2    2
     8     2     3    1
     9     3     4    2
    10     4     5    1
    11     5     6    1
    12     6     7    2
    13     7    19    1
    14    19    21    1
    15    21    22    2
    16    21    24    1
    17    24    25   ar
    18    25    26   ar
    19    26    27   ar
    20    27    28   ar
    21     7     8    1
    22     8     9    2
    23    13    14    1
    24    14    15    1
    25    15    10    1
    26     9     1    1
    27     9     4    1
    28    28    24   ar
    29    17    18    1
    30    19    20    1
    31    22    23    1
@<TRIPOS>MOLECULE
*****
 28 31 0 0 0
SMALL
GASTEIGER

@<TRIPOS>ATOM
      1 C         138.5717  139.4475  165.8587 C.2     1  UNL1       -0.0021
      2 C         137.6350  138.8421  166.8617 C.2     1  UNL1        0.0942
      3 N         138.2124  139.0645  168.2282 N.2     1  UNL1       -0.2482
      4 C         139.5059  139.8074  168.0697 C.2     1  UNL1        0.0633
      5 C         140.5101  140.2988  169.0696 C.3     1  UNL1        0.0753
      6 C         141.7365  141.0269  168.6051 C.2     1  UNL1        0.0203
      7 C         141.9586  141.2636  167.1406 C.2     1  UNL1        0.1317
      8 C         140.9543  140.7722  166.1407 C.2     1  UNL1        0.0407
      9 C         139.7280  140.0441  166.6052 C.2     1  UNL1        0.0148
     10 C         138.0115  139.4702  161.3937 C.3     1  UNL1        0.0540
     11 C         138.5489  138.2472  162.0760 C.3     1  UNL1        0.0160
     12 C         138.7356  138.2397  163.5643 C.3     1  UNL1        0.0058
     13 C         138.3850  139.4550  164.3704 C.3     1  UNL1        0.0240
     14 C         137.8476  140.6781  163.6881 C.3     1  UNL1        0.0058
     15 C         137.6609  140.6856  162.1997 C.3     1  UNL1        0.0160
     16 C         138.2197  140.6840  159.1060 C.3     1  UNL1        0.0858
     17 N         137.8248  139.4777  159.9054 N.3     1  UNL1       -0.2974
     18 H         138.3612  138.6921  159.5373 H       1  UNL1        0.1232
     19 N         143.1850  141.9918  166.6761 N.pl3   1  UNL1       -0.1992
     20 H         143.6911  142.5548  167.3054 H       1  UNL1        0.2985
     21 C         143.6403  141.8621  165.2528 C.2     1  UNL1        0.3224
     22 N         144.3013  140.5980  164.7890 N.2     1  UNL1       -0.0985
     23 H         144.4363  139.8534  165.4188 H       1  UNL1        0.3633
     24 C         143.4345  142.9965  164.2932 C.ar    1  UNL1        0.1114
     25 C         143.9994  144.3795  164.4289 C.ar    1  UNL1        0.0144
     26 C         143.5418  145.1849  163.2490 C.ar    1  UNL1        0.0077
     27 C         142.6941  144.2996  162.3842 C.ar    1  UNL1        0.0357
     28 S         142.6279  142.9472  163.0295 S.2     1  UNL1       -0.0792
@<TRIPOS>BOND
     1    16    17    1
     2    10    17    1
     3    10    11    1
     4    11    12    1
     5    12    13    1
     6    13     1    1
     7     1     2    2
     8     2     3    1
     9     3     4    2
    10     4     5    1
    11     5     6    1
    12     6     7    2
    13     7    19    1
    14    19    21    1
    15    21    22    2
    16    21    24    1
    17    24    25   ar
    18    25    26   ar
    19    26    27   ar
    20    27    28   ar
    21     7     8    1
    22     8     9    2
    23    13    14    1
    24    14    15    1
    25    15    10    1
    26     9     1    1
    27     9     4    1
    28    28    24   ar
    29    17    18    1
    30    19    20    1
    31    22    23    1
