@<TRIPOS>MOLECULE
*****
 33 36 0 0 0
SMALL
GASTEIGER

@<TRIPOS>ATOM
      1 C         142.7238  138.6881  159.5984 C.3     1  UNL1        0.0758
      2 C         143.3978  138.0562  160.7800 C.3     1  UNL1        0.0370
      3 C         142.5792  137.5705  161.9392 C.3     1  UNL1        0.0741
      4 N         141.0865  137.7168  161.9169 N.3     1  UNL1       -0.2688
      5 C         140.4125  138.3488  160.7353 C.3     1  UNL1        0.0741
      6 C         141.2311  138.8344  159.5760 C.3     1  UNL1        0.0370
      7 O         143.9903  141.4061  159.6904 O.2     1  UNL1       -0.2526
      8 C         144.1756  140.5328  158.4850 C.2     1  UNL1        0.3040
      9 N         143.5424  139.1738  158.4390 N.am    1  UNL1       -0.2903
     10 N         144.9943  141.0184  157.3257 N.am    1  UNL1       -0.2617
     11 C         145.2662  140.2611  156.0598 C.3     1  UNL1        0.0976
     12 C         146.1247  141.1213  155.1804 C.3     1  UNL1        0.0525
     13 C         146.3833  142.4102  155.9029 C.3     1  UNL1        0.1320
     14 O         147.1975  143.5606  155.3897 O.3     1  UNL1       -0.3827
     15 C         145.6846  142.3466  157.2288 C.3     1  UNL1        0.1241
     16 H         143.6641  138.6006  157.6479 H       1  UNL1        0.1509
     17 H         147.5388  143.3469  154.5073 H       1  UNL1        0.2104
     18 C         140.2679  137.2312  163.0763 C.3     1  UNL1        0.1007
     19 C         140.0226  138.1315  164.2506 C.ar    1  UNL1        0.0129
     20 C         138.6841  138.4738  164.8347 C.ar    1  UNL1        0.0176
     21 C         138.9069  139.4015  165.9922 C.ar    1  UNL1        0.0799
     22 N         140.3833  139.6325  166.1235 N.ar    1  UNL1       -0.3038
     23 C         141.0727  138.8476  165.0471 C.ar    1  UNL1        0.0772
     24 C         141.0525  140.4967  167.1507 C.ar    1  UNL1        0.0640
     25 C         140.5840  141.9052  167.3662 C.ar    1  UNL1        0.0175
     26 C         141.2533  142.7694  168.3934 C.ar    1  UNL1        0.0053
     27 C         142.3911  142.2251  169.2052 C.ar    1  UNL1        0.0715
     28 C         142.8596  140.8165  168.9898 C.ar    1  UNL1        0.0053
     29 C         142.1904  139.9523  167.9625 C.ar    1  UNL1        0.0175
     30 C         143.0603  143.0892  170.2324 C.3     1  UNL1        0.4186
     31 F         143.7295  143.9535  171.2597 F       1  UNL1       -0.1659
     32 F         144.3652  142.4009  169.9614 F       1  UNL1       -0.1659
     33 F         141.7554  143.7777  170.5035 F       1  UNL1       -0.1659
@<TRIPOS>BOND
     1     7     8    2
     2     8     9   am
     3     9     1    1
     4     1     2    1
     5     2     3    1
     6     3     4    1
     7     4    18    1
     8    18    19    1
     9    19    20   ar
    10    20    21   ar
    11    21    22   ar
    12    22    24    1
    13    24    25   ar
    14    25    26   ar
    15    26    27   ar
    16    27    30    1
    17    30    31    1
    18    30    32    1
    19    30    33    1
    20    27    28   ar
    21    28    29   ar
    22    22    23   ar
    23     4     5    1
    24     5     6    1
    25     8    10   am
    26    10    11    1
    27    11    12    1
    28    12    13    1
    29    13    14    1
    30    13    15    1
    31     6     1    1
    32    15    10    1
    33    23    19   ar
    34    29    24   ar
    35     9    16    1
    36    14    17    1
@<TRIPOS>MOLECULE
*****
 33 36 0 0 0
SMALL
GASTEIGER

@<TRIPOS>ATOM
      1 C         138.4005  140.3815  159.3791 C.3     1  UNL1        0.0758
      2 C         139.3339  139.2324  159.1377 C.3     1  UNL1        0.0370
      3 C         139.7498  138.3517  160.2784 C.3     1  UNL1        0.0741
      4 N         139.2323  138.6200  161.6605 N.3     1  UNL1       -0.2688
      5 C         138.2989  139.7690  161.9019 C.3     1  UNL1        0.0741
      6 C         137.8830  140.6498  160.7612 C.3     1  UNL1        0.0370
      7 O         140.0314  142.8003  158.6795 O.2     1  UNL1       -0.2526
      8 C         138.7999  142.4717  157.8886 C.2     1  UNL1        0.3040
      9 N         137.9845  141.2624  158.2384 N.am    1  UNL1       -0.2903
     10 N         138.3839  143.3526  156.7479 N.am    1  UNL1       -0.2617
     11 C         137.1833  143.1518  155.8715 C.3     1  UNL1        0.0976
     12 C         137.1528  144.2640  154.8652 C.3     1  UNL1        0.0525
     13 C         138.3347  145.1519  155.1199 C.3     1  UNL1        0.1320
     14 O         138.6928  146.3864  154.3468 O.3     1  UNL1       -0.3827
     15 C         139.0955  144.5886  156.2835 C.3     1  UNL1        0.1241
     16 H         137.1762  141.0467  157.7193 H       1  UNL1        0.1509
     17 H         138.0379  146.5301  153.6458 H       1  UNL1        0.2104
     18 C         139.6483  137.7391  162.8012 C.3     1  UNL1        0.1007
     19 C         139.6096  138.2631  164.2061 C.ar    1  UNL1        0.0129
     20 C         138.5739  137.9363  165.2407 C.ar    1  UNL1        0.0176
     21 C         138.9240  138.6771  166.4972 C.ar    1  UNL1        0.0799
     22 N         140.1762  139.4616  166.2392 N.ar    1  UNL1       -0.3038
     23 C         140.5999  139.2058  164.8232 C.ar    1  UNL1        0.0772
     24 C         140.8808  140.3466  167.2241 C.ar    1  UNL1        0.0640
     25 C         142.0725  139.8323  167.9759 C.ar    1  UNL1        0.0175
     26 C         142.7772  140.7173  168.9609 C.ar    1  UNL1        0.0053
     27 C         142.2902  142.1167  169.1941 C.ar    1  UNL1        0.0715
     28 C         141.0984  142.6311  168.4423 C.ar    1  UNL1        0.0053
     29 C         140.3938  141.7461  167.4573 C.ar    1  UNL1        0.0175
     30 C         142.9948  143.0017  170.1790 C.3     1  UNL1        0.4186
     31 F         143.6996  143.8866  171.1640 F       1  UNL1       -0.1659
     32 F         141.7696  143.8606  170.2837 F       1  UNL1       -0.1659
     33 F         144.2201  142.1426  170.0743 F       1  UNL1       -0.1659
@<TRIPOS>BOND
     1     7     8    2
     2     8     9   am
     3     9     1    1
     4     1     2    1
     5     2     3    1
     6     3     4    1
     7     4    18    1
     8    18    19    1
     9    19    20   ar
    10    20    21   ar
    11    21    22   ar
    12    22    24    1
    13    24    25   ar
    14    25    26   ar
    15    26    27   ar
    16    27    30    1
    17    30    31    1
    18    30    32    1
    19    30    33    1
    20    27    28   ar
    21    28    29   ar
    22    22    23   ar
    23     4     5    1
    24     5     6    1
    25     8    10   am
    26    10    11    1
    27    11    12    1
    28    12    13    1
    29    13    14    1
    30    13    15    1
    31     6     1    1
    32    15    10    1
    33    23    19   ar
    34    29    24   ar
    35     9    16    1
    36    14    17    1
@<TRIPOS>MOLECULE
*****
 33 36 0 0 0
SMALL
GASTEIGER

@<TRIPOS>ATOM
      1 C         138.6286  140.8106  159.2756 C.3     1  UNL1        0.0758
      2 C         138.0321  141.1935  160.5975 C.3     1  UNL1        0.0370
      3 C         138.1348  140.2583  161.7657 C.3     1  UNL1        0.0741
      4 N         138.8339  138.9401  161.6119 N.3     1  UNL1       -0.2688
      5 C         139.4304  138.5572  160.2900 C.3     1  UNL1        0.0741
      6 C         139.3278  139.4925  159.1218 C.3     1  UNL1        0.0370
      7 O         136.4671  140.4256  157.2311 O.2     1  UNL1       -0.2526
      8 C         137.4453  141.5534  157.0851 C.2     1  UNL1        0.3040
      9 N         138.5260  141.7459  158.1073 N.am    1  UNL1       -0.2903
     10 N         137.3427  142.4887  155.9168 N.am    1  UNL1       -0.2617
     11 C         138.2441  143.6551  155.6395 C.3     1  UNL1        0.0976
     12 C         137.7792  144.3091  154.3721 C.3     1  UNL1        0.0525
     13 C         136.5904  143.5468  153.8662 C.3     1  UNL1        0.1320
     14 O         135.8088  143.8553  152.6238 O.3     1  UNL1       -0.3827
     15 C         136.3207  142.4217  154.8209 C.3     1  UNL1        0.1241
     16 H         139.1680  142.4861  158.0115 H       1  UNL1        0.1509
     17 H         136.1898  144.6330  152.1869 H       1  UNL1        0.2104
     18 C         138.9365  138.0048  162.7802 C.3     1  UNL1        0.1007
     19 C         139.9894  138.2236  163.8259 C.ar    1  UNL1        0.0129
     20 C         141.1600  137.3265  164.0996 C.ar    1  UNL1        0.0176
     21 C         141.9507  137.9263  165.2243 C.ar    1  UNL1        0.0799
     22 N         141.2688  139.1942  165.6457 N.ar    1  UNL1       -0.3038
     23 C         140.0567  139.3779  164.7814 C.ar    1  UNL1        0.0772
     24 C         141.7198  140.1164  166.7394 C.ar    1  UNL1        0.0640
     25 C         142.6852  141.2236  166.4362 C.ar    1  UNL1        0.0175
     26 C         143.1363  142.1458  167.5299 C.ar    1  UNL1        0.0053
     27 C         142.6219  141.9608  168.9266 C.ar    1  UNL1        0.0715
     28 C         141.6565  140.8536  169.2299 C.ar    1  UNL1        0.0053
     29 C         141.2055  139.9314  168.1362 C.ar    1  UNL1        0.0175
     30 C         143.0730  142.8830  170.0203 C.3     1  UNL1        0.4186
     31 F         143.5239  143.8053  171.1140 F       1  UNL1       -0.1659
     32 F         144.4229  142.2291  170.0149 F       1  UNL1       -0.1659
     33 F         141.7229  143.5370  170.0257 F       1  UNL1       -0.1659
@<TRIPOS>BOND
     1     7     8    2
     2     8     9   am
     3     9     1    1
     4     1     2    1
     5     2     3    1
     6     3     4    1
     7     4    18    1
     8    18    19    1
     9    19    20   ar
    10    20    21   ar
    11    21    22   ar
    12    22    24    1
    13    24    25   ar
    14    25    26   ar
    15    26    27   ar
    16    27    30    1
    17    30    31    1
    18    30    32    1
    19    30    33    1
    20    27    28   ar
    21    28    29   ar
    22    22    23   ar
    23     4     5    1
    24     5     6    1
    25     8    10   am
    26    10    11    1
    27    11    12    1
    28    12    13    1
    29    13    14    1
    30    13    15    1
    31     6     1    1
    32    15    10    1
    33    23    19   ar
    34    29    24   ar
    35     9    16    1
    36    14    17    1
@<TRIPOS>MOLECULE
*****
 33 36 0 0 0
SMALL
GASTEIGER

@<TRIPOS>ATOM
      1 C         138.6557  139.9198  159.3466 C.3     1  UNL1        0.0758
      2 C         138.0959  139.3525  160.6172 C.3     1  UNL1        0.0370
      3 C         137.7019  140.2683  161.7379 C.3     1  UNL1        0.0741
      4 N         137.8679  141.7516  161.5879 N.3     1  UNL1       -0.2688
      5 C         138.4277  142.3189  160.3172 C.3     1  UNL1        0.0741
      6 C         138.8217  141.4030  159.1966 C.3     1  UNL1        0.0370
      7 O         141.3750  138.6527  159.3302 O.2     1  UNL1       -0.2526
      8 C         140.4093  138.3704  158.2177 C.2     1  UNL1        0.3040
      9 N         139.0497  139.0039  158.2258 N.am    1  UNL1       -0.2903
     10 N         140.8033  137.4545  157.0969 N.am    1  UNL1       -0.2617
     11 C         139.9486  137.0803  155.9224 C.3     1  UNL1        0.0976
     12 C         140.7382  136.1465  155.0535 C.3     1  UNL1        0.0525
     13 C         142.0808  135.9438  155.6911 C.3     1  UNL1        0.1320
     14 O         143.1885  135.0837  155.1592 O.3     1  UNL1       -0.3827
     15 C         142.1209  136.7522  156.9540 C.3     1  UNL1        0.1241
     16 H         138.4159  138.8186  157.4956 H       1  UNL1        0.1509
     17 H         142.9063  134.6701  154.3285 H       1  UNL1        0.2104
     18 C         137.4739  142.6675  162.7087 C.3     1  UNL1        0.1007
     19 C         138.4248  142.9192  163.8410 C.ar    1  UNL1        0.0129
     20 C         138.9950  144.2497  164.2343 C.ar    1  UNL1        0.0176
     21 C         139.8951  144.0374  165.4153 C.ar    1  UNL1        0.0799
     22 N         139.8812  142.5757  165.7519 N.ar    1  UNL1       -0.3038
     23 C         138.9725  141.8846  164.7790 C.ar    1  UNL1        0.0772
     24 C         140.6424  141.9203  166.8659 C.ar    1  UNL1        0.0640
     25 C         141.5357  140.7505  166.5771 C.ar    1  UNL1        0.0175
     26 C         142.2969  140.0950  167.6911 C.ar    1  UNL1        0.0053
     27 C         142.1647  140.6093  169.0939 C.ar    1  UNL1        0.0715
     28 C         141.2714  141.7791  169.3828 C.ar    1  UNL1        0.0053
     29 C         140.5102  142.4346  168.2688 C.ar    1  UNL1        0.0175
     30 C         142.9259  139.9539  170.2078 C.3     1  UNL1        0.4186
     31 F         143.6870  139.2983  171.3219 F       1  UNL1       -0.1659
     32 F         143.8826  141.1088  170.2337 F       1  UNL1       -0.1659
     33 F         141.9691  138.7988  170.1820 F       1  UNL1       -0.1659
@<TRIPOS>BOND
     1     7     8    2
     2     8     9   am
     3     9     1    1
     4     1     2    1
     5     2     3    1
     6     3     4    1
     7     4    18    1
     8    18    19    1
     9    19    20   ar
    10    20    21   ar
    11    21    22   ar
    12    22    24    1
    13    24    25   ar
    14    25    26   ar
    15    26    27   ar
    16    27    30    1
    17    30    31    1
    18    30    32    1
    19    30    33    1
    20    27    28   ar
    21    28    29   ar
    22    22    23   ar
    23     4     5    1
    24     5     6    1
    25     8    10   am
    26    10    11    1
    27    11    12    1
    28    12    13    1
    29    13    14    1
    30    13    15    1
    31     6     1    1
    32    15    10    1
    33    23    19   ar
    34    29    24   ar
    35     9    16    1
    36    14    17    1
@<TRIPOS>MOLECULE
*****
 33 36 0 0 0
SMALL
GASTEIGER

@<TRIPOS>ATOM
      1 C         138.5280  140.3968  158.6012 C.3     1  UNL1        0.0758
      2 C         139.4372  139.2048  158.5522 C.3     1  UNL1        0.0370
      3 C         140.8045  139.2789  159.1645 C.3     1  UNL1        0.0741
      4 N         141.2625  140.5449  159.8258 N.3     1  UNL1       -0.2688
      5 C         140.3533  141.7369  159.8748 C.3     1  UNL1        0.0741
      6 C         138.9860  141.6629  159.2625 C.3     1  UNL1        0.0370
      7 O         137.9966  141.7059  155.9547 O.2     1  UNL1       -0.2526
      8 C         136.8949  140.9773  156.6656 C.2     1  UNL1        0.3040
      9 N         137.1606  140.3228  157.9889 N.am    1  UNL1       -0.2903
     10 N         135.5275  140.9033  156.0533 N.am    1  UNL1       -0.2617
     11 C         134.3334  140.2137  156.6437 C.3     1  UNL1        0.0976
     12 C         133.1821  140.3901  155.6984 C.3     1  UNL1        0.0525
     13 C         133.6648  141.1887  154.5239 C.3     1  UNL1        0.1320
     14 O         132.8423  141.5981  153.3383 O.3     1  UNL1       -0.3827
     15 C         135.1143  141.5058  154.7433 C.3     1  UNL1        0.1241
     16 H         136.4375  139.8446  158.4555 H       1  UNL1        0.1509
     17 H         131.9370  141.2660  153.4426 H       1  UNL1        0.2104
     18 C         142.6299  140.6189  160.4381 C.3     1  UNL1        0.1007
     19 C         142.8526  140.1274  161.8377 C.ar    1  UNL1        0.0129
     20 C         143.9684  139.2335  162.2912 C.ar    1  UNL1        0.0176
     21 C         143.8040  138.9972  163.7632 C.ar    1  UNL1        0.0799
     22 N         142.5864  139.7450  164.2196 N.ar    1  UNL1       -0.3038
     23 C         141.9984  140.4436  163.0295 C.ar    1  UNL1        0.0772
     24 C         142.0508  139.7870  165.6201 C.ar    1  UNL1        0.0640
     25 C         142.9518  139.4724  166.7773 C.ar    1  UNL1        0.0175
     26 C         142.4163  139.5144  168.1778 C.ar    1  UNL1        0.0053
     27 C         140.9798  139.8709  168.4211 C.ar    1  UNL1        0.0715
     28 C         140.0787  140.1855  167.2639 C.ar    1  UNL1        0.0053
     29 C         140.6143  140.1435  165.8634 C.ar    1  UNL1        0.0175
     30 C         140.4443  139.9128  169.8216 C.3     1  UNL1        0.4186
     31 F         139.9087  139.9548  171.2221 F       1  UNL1       -0.1659
     32 F         141.8066  139.5779  170.3526 F       1  UNL1       -0.1659
     33 F         139.0819  140.2478  169.2907 F       1  UNL1       -0.1659
@<TRIPOS>BOND
     1     7     8    2
     2     8     9   am
     3     9     1    1
     4     1     2    1
     5     2     3    1
     6     3     4    1
     7     4    18    1
     8    18    19    1
     9    19    20   ar
    10    20    21   ar
    11    21    22   ar
    12    22    24    1
    13    24    25   ar
    14    25    26   ar
    15    26    27   ar
    16    27    30    1
    17    30    31    1
    18    30    32    1
    19    30    33    1
    20    27    28   ar
    21    28    29   ar
    22    22    23   ar
    23     4     5    1
    24     5     6    1
    25     8    10   am
    26    10    11    1
    27    11    12    1
    28    12    13    1
    29    13    14    1
    30    13    15    1
    31     6     1    1
    32    15    10    1
    33    23    19   ar
    34    29    24   ar
    35     9    16    1
    36    14    17    1
@<TRIPOS>MOLECULE
*****
 33 36 0 0 0
SMALL
GASTEIGER

@<TRIPOS>ATOM
      1 C         138.4811  140.0403  164.7806 C.3     1  UNL1        0.0758
      2 C         138.0450  141.2918  164.0780 C.3     1  UNL1        0.0370
      3 C         137.7721  141.2677  162.6033 C.3     1  UNL1        0.0741
      4 N         137.9352  139.9921  161.8311 N.3     1  UNL1       -0.2688
      5 C         138.3713  138.7407  162.5336 C.3     1  UNL1        0.0741
      6 C         138.6443  138.7648  164.0083 C.3     1  UNL1        0.0370
      7 O         141.3087  140.0752  165.7824 O.2     1  UNL1       -0.2526
      8 C         140.1678  140.0818  166.7563 C.2     1  UNL1        0.3040
      9 N         138.7540  140.0644  166.2554 N.am    1  UNL1       -0.2903
     10 N         140.4407  140.1058  168.2311 N.am    1  UNL1       -0.2617
     11 C         139.4078  140.1149  169.3188 C.3     1  UNL1        0.0976
     12 C         140.1232  140.1397  170.6371 C.3     1  UNL1        0.0525
     13 C         141.5982  140.1460  170.3640 C.3     1  UNL1        0.1320
     14 O         142.6858  140.1691  171.3965 O.3     1  UNL1       -0.3827
     15 C         141.7944  140.1250  168.8770 C.3     1  UNL1        0.1241
     16 H         138.0052  140.0687  166.8945 H       1  UNL1        0.1509
     17 H         142.2906  140.1796  172.2823 H       1  UNL1        0.2104
     18 C         137.6623  139.9681  160.3563 C.3     1  UNL1        0.1007
     19 C         138.5246  140.7627  159.4209 C.ar    1  UNL1        0.0129
     20 C         139.8761  140.3594  158.9103 C.ar    1  UNL1        0.0176
     21 C         140.3736  141.4476  158.0057 C.ar    1  UNL1        0.0799
     22 N         139.3295  142.5236  157.9572 N.ar    1  UNL1       -0.3038
     23 C         138.1868  142.1003  158.8319 C.ar    1  UNL1        0.0772
     24 C         139.4134  143.7988  157.1720 C.ar    1  UNL1        0.0640
     25 C         140.4270  144.8412  157.5406 C.ar    1  UNL1        0.0175
     26 C         140.5109  146.1165  156.7554 C.ar    1  UNL1        0.0053
     27 C         139.5813  146.3494  155.6016 C.ar    1  UNL1        0.0715
     28 C         138.5677  145.3070  155.2329 C.ar    1  UNL1        0.0053
     29 C         138.4837  144.0317  156.0181 C.ar    1  UNL1        0.0175
     30 C         139.6652  147.6246  154.8163 C.3     1  UNL1        0.4186
     31 F         139.7493  148.8999  154.0310 F       1  UNL1       -0.1659
     32 F         138.5813  148.2191  155.6659 F       1  UNL1       -0.1659
     33 F         140.7492  147.0302  153.9667 F       1  UNL1       -0.1659
@<TRIPOS>BOND
     1     7     8    2
     2     8     9   am
     3     9     1    1
     4     1     2    1
     5     2     3    1
     6     3     4    1
     7     4    18    1
     8    18    19    1
     9    19    20   ar
    10    20    21   ar
    11    21    22   ar
    12    22    24    1
    13    24    25   ar
    14    25    26   ar
    15    26    27   ar
    16    27    30    1
    17    30    31    1
    18    30    32    1
    19    30    33    1
    20    27    28   ar
    21    28    29   ar
    22    22    23   ar
    23     4     5    1
    24     5     6    1
    25     8    10   am
    26    10    11    1
    27    11    12    1
    28    12    13    1
    29    13    14    1
    30    13    15    1
    31     6     1    1
    32    15    10    1
    33    23    19   ar
    34    29    24   ar
    35     9    16    1
    36    14    17    1
@<TRIPOS>MOLECULE
*****
 33 36 0 0 0
SMALL
GASTEIGER

@<TRIPOS>ATOM
      1 C         142.2457  142.9129  157.7497 C.3     1  UNL1        0.0758
      2 C         143.5348  143.0969  158.4942 C.3     1  UNL1        0.0370
      3 C         144.0820  141.9807  159.3335 C.3     1  UNL1        0.0741
      4 N         143.3402  140.6804  159.4284 N.3     1  UNL1       -0.2688
      5 C         142.0510  140.4964  158.6839 C.3     1  UNL1        0.0741
      6 C         141.5038  141.6126  157.8446 C.3     1  UNL1        0.0370
      7 O         140.3121  144.8746  158.9385 O.2     1  UNL1       -0.2526
      8 C         140.7316  145.0099  157.5047 C.2     1  UNL1        0.3040
      9 N         141.6984  144.0292  156.9103 N.am    1  UNL1       -0.2903
     10 N         140.1843  146.1262  156.6654 N.am    1  UNL1       -0.2617
     11 C         140.5102  146.3873  155.2247 C.3     1  UNL1        0.0976
     12 C         139.7423  147.5998  154.7882 C.3     1  UNL1        0.0525
     13 C         138.9419  148.0879  155.9592 C.3     1  UNL1        0.1320
     14 O         138.0287  149.2778  155.9684 O.3     1  UNL1       -0.3827
     15 C         139.2151  147.1772  157.1193 C.3     1  UNL1        0.1241
     16 H         141.9737  144.1180  155.9693 H       1  UNL1        0.1509
     17 H         138.0306  149.6936  155.0920 H       1  UNL1        0.2104
     18 C         143.8875  139.5642  160.2677 C.3     1  UNL1        0.1007
     19 C         143.4437  139.4099  161.6922 C.ar    1  UNL1        0.0129
     20 C         142.7230  138.2270  162.2680 C.ar    1  UNL1        0.0176
     21 C         142.4766  138.4974  163.7227 C.ar    1  UNL1        0.0799
     22 N         143.0450  139.8474  164.0460 N.ar    1  UNL1       -0.3038
     23 C         143.6427  140.4113  162.7911 C.ar    1  UNL1        0.0772
     24 C         143.0201  140.5161  165.3885 C.ar    1  UNL1        0.0640
     25 C         142.5971  139.7442  166.6031 C.ar    1  UNL1        0.0175
     26 C         142.5722  140.4129  167.9455 C.ar    1  UNL1        0.0053
     27 C         142.9702  141.8533  168.0734 C.ar    1  UNL1        0.0715
     28 C         143.3932  142.6253  166.8589 C.ar    1  UNL1        0.0053
     29 C         143.4182  141.9566  165.5164 C.ar    1  UNL1        0.0175
     30 C         142.9453  142.5220  169.4159 C.3     1  UNL1        0.4186
     31 F         142.9203  143.1906  170.7584 F       1  UNL1       -0.1659
     32 F         144.4420  142.6200  169.3949 F       1  UNL1       -0.1659
     33 F         141.4486  142.4240  169.4370 F       1  UNL1       -0.1659
@<TRIPOS>BOND
     1     7     8    2
     2     8     9   am
     3     9     1    1
     4     1     2    1
     5     2     3    1
     6     3     4    1
     7     4    18    1
     8    18    19    1
     9    19    20   ar
    10    20    21   ar
    11    21    22   ar
    12    22    24    1
    13    24    25   ar
    14    25    26   ar
    15    26    27   ar
    16    27    30    1
    17    30    31    1
    18    30    32    1
    19    30    33    1
    20    27    28   ar
    21    28    29   ar
    22    22    23   ar
    23     4     5    1
    24     5     6    1
    25     8    10   am
    26    10    11    1
    27    11    12    1
    28    12    13    1
    29    13    14    1
    30    13    15    1
    31     6     1    1
    32    15    10    1
    33    23    19   ar
    34    29    24   ar
    35     9    16    1
    36    14    17    1
@<TRIPOS>MOLECULE
*****
 33 36 0 0 0
SMALL
GASTEIGER

@<TRIPOS>ATOM
      1 C         140.4531  143.9465  158.9331 C.3     1  UNL1        0.0758
      2 C         140.1679  144.8682  160.0816 C.3     1  UNL1        0.0370
      3 C         141.1719  145.0244  161.1850 C.3     1  UNL1        0.0741
      4 N         142.4611  144.2589  161.1399 N.3     1  UNL1       -0.2688
      5 C         142.7463  143.3372  159.9914 C.3     1  UNL1        0.0741
      6 C         141.7423  143.1810  158.8880 C.3     1  UNL1        0.0370
      7 O         138.5568  141.6219  158.9486 O.2     1  UNL1       -0.2526
      8 C         138.5009  142.6279  157.8374 C.2     1  UNL1        0.3040
      9 N         139.4490  143.7902  157.8297 N.am    1  UNL1       -0.2903
     10 N         137.4969  142.4717  156.7339 N.am    1  UNL1       -0.2617
     11 C         137.3236  143.3927  155.5627 C.3     1  UNL1        0.0976
     12 C         136.2095  142.8572  154.7129 C.3     1  UNL1        0.0525
     13 C         135.6943  141.6053  155.3589 C.3     1  UNL1        0.1320
     14 O         134.5794  140.7431  154.8459 O.3     1  UNL1       -0.3827
     15 C         136.4900  141.3670  156.6080 C.3     1  UNL1        0.1241
     16 H         139.4124  144.4505  157.1004 H       1  UNL1        0.1509
     17 H         134.2333  141.1187  154.0213 H       1  UNL1        0.2104
     18 C         143.4651  144.4152  162.2434 C.3     1  UNL1        0.1007
     19 C         143.5392  143.3946  163.3401 C.ar    1  UNL1        0.0129
     20 C         144.6304  142.3833  163.5311 C.ar    1  UNL1        0.0176
     21 C         144.3007  141.5697  164.7473 C.ar    1  UNL1        0.0799
     22 N         143.0057  142.0782  165.3081 N.ar    1  UNL1       -0.3038
     23 C         142.5350  143.2060  164.4383 C.ar    1  UNL1        0.0772
     24 C         142.3044  141.5513  166.5249 C.ar    1  UNL1        0.0640
     25 C         141.1177  142.2806  167.0814 C.ar    1  UNL1        0.0175
     26 C         140.4165  141.7538  168.2982 C.ar    1  UNL1        0.0053
     27 C         140.9020  140.4976  168.9586 C.ar    1  UNL1        0.0715
     28 C         142.0887  139.7682  168.4021 C.ar    1  UNL1        0.0053
     29 C         142.7899  140.2950  167.1853 C.ar    1  UNL1        0.0175
     30 C         140.2007  139.9707  170.1754 C.3     1  UNL1        0.4186
     31 F         139.4994  139.4439  171.3922 F       1  UNL1       -0.1659
     32 F         141.3149  138.9903  170.3929 F       1  UNL1       -0.1659
     33 F         139.0865  140.9512  169.9578 F       1  UNL1       -0.1659
@<TRIPOS>BOND
     1     7     8    2
     2     8     9   am
     3     9     1    1
     4     1     2    1
     5     2     3    1
     6     3     4    1
     7     4    18    1
     8    18    19    1
     9    19    20   ar
    10    20    21   ar
    11    21    22   ar
    12    22    24    1
    13    24    25   ar
    14    25    26   ar
    15    26    27   ar
    16    27    30    1
    17    30    31    1
    18    30    32    1
    19    30    33    1
    20    27    28   ar
    21    28    29   ar
    22    22    23   ar
    23     4     5    1
    24     5     6    1
    25     8    10   am
    26    10    11    1
    27    11    12    1
    28    12    13    1
    29    13    14    1
    30    13    15    1
    31     6     1    1
    32    15    10    1
    33    23    19   ar
    34    29    24   ar
    35     9    16    1
    36    14    17    1
@<TRIPOS>MOLECULE
*****
 33 36 0 0 0
SMALL
GASTEIGER

@<TRIPOS>ATOM
      1 C         140.0220  145.7621  156.8063 C.3     1  UNL1        0.0758
      2 C         139.1915  144.5448  156.5265 C.3     1  UNL1        0.0370
      3 C         139.2617  143.3615  157.4456 C.3     1  UNL1        0.0741
      4 N         140.1624  143.3956  158.6446 N.3     1  UNL1       -0.2688
      5 C         140.9929  144.6129  158.9244 C.3     1  UNL1        0.0741
      6 C         140.9227  145.7961  158.0052 C.3     1  UNL1        0.0370
      7 O         138.5320  148.2271  157.6453 O.2     1  UNL1       -0.2526
      8 C         139.2069  148.1779  156.3066 C.2     1  UNL1        0.3040
      9 N         139.9518  146.9454  155.8871 N.am    1  UNL1       -0.2903
     10 N         139.1367  149.3612  155.3874 N.am    1  UNL1       -0.2617
     11 C         139.7587  149.4580  154.0259 C.3     1  UNL1        0.0976
     12 C         139.4386  150.8121  153.4653 C.3     1  UNL1        0.0525
     13 C         138.6189  151.5521  154.4805 C.3     1  UNL1        0.1320
     14 O         138.0803  152.9443  154.3336 O.3     1  UNL1       -0.3827
     15 C         138.4323  150.6554  155.6684 C.3     1  UNL1        0.1241
     16 H         140.3947  146.9132  155.0084 H       1  UNL1        0.1509
     17 H         138.3434  153.3034  153.4718 H       1  UNL1        0.2104
     18 C         140.2326  142.2122  159.5638 C.3     1  UNL1        0.1007
     19 C         139.6874  142.3119  160.9576 C.ar    1  UNL1        0.0129
     20 C         138.5124  143.1391  161.3877 C.ar    1  UNL1        0.0176
     21 C         138.3203  142.9403  162.8620 C.ar    1  UNL1        0.0799
     22 N         139.3766  141.9902  163.3431 N.ar    1  UNL1       -0.3038
     23 C         140.2215  141.6018  162.1662 C.ar    1  UNL1        0.0772
     24 C         139.5564  141.5123  164.7535 C.ar    1  UNL1        0.0640
     25 C         140.3099  142.3539  165.7403 C.ar    1  UNL1        0.0175
     26 C         140.4897  141.8761  167.1507 C.ar    1  UNL1        0.0053
     27 C         139.9160  140.5566  167.5744 C.ar    1  UNL1        0.0715
     28 C         139.1624  139.7149  166.5877 C.ar    1  UNL1        0.0053
     29 C         138.9826  140.1927  165.1773 C.ar    1  UNL1        0.0175
     30 C         140.0958  140.0788  168.9848 C.3     1  UNL1        0.4186
     31 F         140.2755  139.6010  170.3953 F       1  UNL1       -0.1659
     32 F         141.4760  139.5988  168.6463 F       1  UNL1       -0.1659
     33 F         138.7155  140.5588  169.3234 F       1  UNL1       -0.1659
@<TRIPOS>BOND
     1     7     8    2
     2     8     9   am
     3     9     1    1
     4     1     2    1
     5     2     3    1
     6     3     4    1
     7     4    18    1
     8    18    19    1
     9    19    20   ar
    10    20    21   ar
    11    21    22   ar
    12    22    24    1
    13    24    25   ar
    14    25    26   ar
    15    26    27   ar
    16    27    30    1
    17    30    31    1
    18    30    32    1
    19    30    33    1
    20    27    28   ar
    21    28    29   ar
    22    22    23   ar
    23     4     5    1
    24     5     6    1
    25     8    10   am
    26    10    11    1
    27    11    12    1
    28    12    13    1
    29    13    14    1
    30    13    15    1
    31     6     1    1
    32    15    10    1
    33    23    19   ar
    34    29    24   ar
    35     9    16    1
    36    14    17    1
