@<TRIPOS>MOLECULE
*****
 39 42 0 0 0
SMALL
GASTEIGER

@<TRIPOS>ATOM
      1 C         141.6664  139.3335  161.6619 C.ar    1  UNL1        0.0674
      2 C         141.3700  137.8632  161.6788 C.ar    1  UNL1        0.1133
      3 N         140.4870  137.2884  162.7464 N.ar    1  UNL1       -0.2425
      4 C         139.9003  138.1839  163.7970 C.ar    1  UNL1        0.0825
      5 C         139.0172  137.6090  164.8647 C.ar    1  UNL1        0.0230
      6 C         138.4305  138.5045  165.9153 C.ar    1  UNL1        0.0741
      7 C         138.7269  139.9748  165.8984 C.ar    1  UNL1        0.0183
      8 C         139.6100  140.5497  164.8308 C.ar    1  UNL1        0.0463
      9 C         140.1967  139.6542  163.7801 C.ar    1  UNL1        0.0320
     10 C         141.0797  140.2290  162.7126 C.ar    1  UNL1        0.0188
     11 C         145.1986  141.6332  157.3916 C.2     1  UNL1        0.2398
     12 O         146.0675  142.8178  157.6944 O.2     1  UNL1       -0.2734
     13 N         144.3156  141.0583  158.4591 N.am    1  UNL1       -0.2750
     14 C         143.4468  139.8736  158.1563 C.3     1  UNL1        0.1149
     15 C         142.5637  139.2987  159.2239 C.3     1  UNL1        0.1124
     16 N         142.5495  139.9084  160.5943 N.pl3   1  UNL1       -0.3028
     17 C         143.4183  141.0931  160.8971 C.3     1  UNL1        0.1124
     18 C         144.3013  141.6680  159.8296 C.3     1  UNL1        0.1149
     19 C         144.4743  141.6875  154.8971 C.3     1  UNL1        0.0267
     20 C         145.2129  141.0234  156.0212 C.3     1  UNL1        0.1286
     21 N         145.9656  139.7495  155.7749 N.3     1  UNL1       -0.3150
     22 H         145.8682  139.4809  154.7958 H       1  UNL1        0.1192
     23 H         145.5884  139.0113  156.3692 H       1  UNL1        0.1192
     24 C         137.5475  137.9296  166.9829 C.3     1  UNL1        0.4187
     25 F         136.6644  137.3547  168.0505 F       1  UNL1       -0.1659
     26 F         137.6306  136.5834  166.3268 F       1  UNL1       -0.1659
     27 F         137.4644  139.2759  167.6391 F       1  UNL1       -0.1659
     28 N         139.9063  142.0200  164.8139 N.pl3   1  UNL1       -0.3290
     29 H         139.3496  142.6282  164.2760 H       1  UNL1        0.1471
     30 C         141.0509  142.5636  165.6166 C.3     1  UNL1        0.1145
     31 C         141.3609  141.9874  166.9664 C.ar    1  UNL1        0.0035
     32 C         142.2768  140.8054  167.0849 C.ar    1  UNL1       -0.0022
     33 C         142.5868  140.2291  168.4346 C.ar    1  UNL1        0.0060
     34 C         141.9810  140.8348  169.6659 C.ar    1  UNL1        0.0752
     35 C         141.0651  142.0168  169.5474 C.ar    1  UNL1        0.2898
     36 C         140.7551  142.5931  168.1976 C.ar    1  UNL1        0.0727
     37 N         140.4592  142.6225  170.7787 N.pl3   1  UNL1        0.0809
     38 O         139.6394  143.8742  170.6732 O.2     1  UNL1        0.0415
     39 O         140.6732  141.9766  172.1154 O.co2   1  UNL1       -0.5760
@<TRIPOS>UNITY_ATOM_ATTR
37 1
charge 1
39 1
charge -1
@<TRIPOS>BOND
     1    20    19    1
     2    20    21    1
     3    20    11    1
     4    11    12    2
     5    11    13   am
     6    13    14    1
     7    14    15    1
     8    15    16    1
     9    16     1    1
    10     1     2   ar
    11     2     3   ar
    12     3     4   ar
    13     4     5   ar
    14     5     6   ar
    15     6    24    1
    16    24    25    1
    17    24    26    1
    18    24    27    1
    19     6     7   ar
    20     7     8   ar
    21     8    28    1
    22    28    30    1
    23    30    31    1
    24    31    32   ar
    25    32    33   ar
    26    33    34   ar
    27    34    35   ar
    28    35    37    1
    29    37    38    2
    30    37    39    1
    31    35    36   ar
    32     8     9   ar
    33     9    10   ar
    34    16    17    1
    35    17    18    1
    36    18    13    1
    37    10     1   ar
    38     9     4   ar
    39    36    31   ar
    40    21    22    1
    41    21    23    1
    42    28    29    1
@<TRIPOS>MOLECULE
*****
 39 42 0 0 0
SMALL
GASTEIGER

@<TRIPOS>ATOM
      1 C         140.6222  140.3843  160.1149 C.ar    1  UNL1        0.0674
      2 C         141.0917  141.7859  159.8602 C.ar    1  UNL1        0.1133
      3 N         140.7638  142.8758  160.8372 N.ar    1  UNL1       -0.2425
      4 C         139.9663  142.5641  162.0688 C.ar    1  UNL1        0.0825
      5 C         139.6384  143.6541  163.0458 C.ar    1  UNL1        0.0230
      6 C         138.8410  143.3424  164.2774 C.ar    1  UNL1        0.0741
      7 C         138.3714  141.9407  164.5320 C.ar    1  UNL1        0.0183
      8 C         138.6994  140.8507  163.5551 C.ar    1  UNL1        0.0463
      9 C         139.4968  141.1625  162.3234 C.ar    1  UNL1        0.0320
     10 C         139.8247  140.0725  161.3465 C.ar    1  UNL1        0.0188
     11 C         141.9336  136.0243  156.2070 C.2     1  UNL1        0.2398
     12 O         140.8788  135.5145  155.2703 O.2     1  UNL1       -0.2734
     13 N         141.6058  137.1143  157.1839 N.am    1  UNL1       -0.2750
     14 C         142.6606  137.6241  158.1206 C.3     1  UNL1        0.1149
     15 C         142.3327  138.7142  159.0976 C.3     1  UNL1        0.1124
     16 N         140.9501  139.2942  159.1379 N.pl3   1  UNL1       -0.3028
     17 C         139.8952  138.7844  158.2012 C.3     1  UNL1        0.1124
     18 C         140.2231  137.6944  157.2242 C.3     1  UNL1        0.1149
     19 C         143.6379  134.2160  156.9655 C.3     1  UNL1        0.0267
     20 C         143.3163  135.4443  156.1667 C.3     1  UNL1        0.1286
     21 N         144.3774  136.0924  155.3277 N.3     1  UNL1       -0.3150
     22 H         145.2488  135.5699  155.4182 H       1  UNL1        0.1192
     23 H         144.5217  137.0515  155.6432 H       1  UNL1        0.1192
     24 C         138.5131  144.4323  165.2544 C.3     1  UNL1        0.4187
     25 F         138.1852  145.5223  166.2314 F       1  UNL1       -0.1659
     26 F         139.8416  144.2336  165.9219 F       1  UNL1       -0.1659
     27 F         137.1846  144.6310  164.5868 F       1  UNL1       -0.1659
     28 N         138.2298  139.4491  163.8097 N.pl3   1  UNL1       -0.3290
     29 H         137.4105  139.1179  163.3757 H       1  UNL1        0.1471
     30 C         139.0085  138.5520  164.7256 C.3     1  UNL1        0.1145
     31 C         139.7223  139.1290  165.9121 C.ar    1  UNL1        0.0035
     32 C         141.2012  139.3728  165.8520 C.ar    1  UNL1       -0.0022
     33 C         141.9150  139.9497  167.0384 C.ar    1  UNL1        0.0060
     34 C         141.1500  140.2828  168.2850 C.ar    1  UNL1        0.0752
     35 C         139.6712  140.0390  168.3451 C.ar    1  UNL1        0.2898
     36 C         138.9573  139.4621  167.1586 C.ar    1  UNL1        0.0727
     37 N         138.9062  140.3721  169.5916 N.pl3   1  UNL1        0.0809
     38 O         137.7940  139.4765  170.0509 O.2     1  UNL1        0.0415
     39 O         139.2534  141.6008  170.3788 O.co2   1  UNL1       -0.5760
@<TRIPOS>UNITY_ATOM_ATTR
37 1
charge 1
39 1
charge -1
@<TRIPOS>BOND
     1    20    19    1
     2    20    21    1
     3    20    11    1
     4    11    12    2
     5    11    13   am
     6    13    14    1
     7    14    15    1
     8    15    16    1
     9    16     1    1
    10     1     2   ar
    11     2     3   ar
    12     3     4   ar
    13     4     5   ar
    14     5     6   ar
    15     6    24    1
    16    24    25    1
    17    24    26    1
    18    24    27    1
    19     6     7   ar
    20     7     8   ar
    21     8    28    1
    22    28    30    1
    23    30    31    1
    24    31    32   ar
    25    32    33   ar
    26    33    34   ar
    27    34    35   ar
    28    35    37    1
    29    37    38    2
    30    37    39    1
    31    35    36   ar
    32     8     9   ar
    33     9    10   ar
    34    16    17    1
    35    17    18    1
    36    18    13    1
    37    10     1   ar
    38     9     4   ar
    39    36    31   ar
    40    21    22    1
    41    21    23    1
    42    28    29    1
@<TRIPOS>MOLECULE
*****
 39 42 0 0 0
SMALL
GASTEIGER

@<TRIPOS>ATOM
      1 C         141.2795  139.3639  161.4442 C.ar    1  UNL1        0.0674
      2 C         141.3775  137.8881  161.6934 C.ar    1  UNL1        0.1133
      3 N         140.6468  137.2726  162.8497 N.ar    1  UNL1       -0.2425
      4 C         139.8180  138.1330  163.7569 C.ar    1  UNL1        0.0825
      5 C         139.0873  137.5174  164.9133 C.ar    1  UNL1        0.0230
      6 C         138.2586  138.3778  165.8204 C.ar    1  UNL1        0.0741
      7 C         138.1606  139.8537  165.5712 C.ar    1  UNL1        0.0183
      8 C         138.8913  140.4692  164.4148 C.ar    1  UNL1        0.0463
      9 C         139.7200  139.6088  163.5077 C.ar    1  UNL1        0.0320
     10 C         140.4507  140.2243  162.3514 C.ar    1  UNL1        0.0188
     11 C         144.2023  141.8262  156.8187 C.2     1  UNL1        0.2398
     12 O         143.5098  142.8256  155.9403 O.2     1  UNL1       -0.2734
     13 N         143.4716  141.2106  157.9751 N.am    1  UNL1       -0.2750
     14 C         144.1641  140.2113  158.8535 C.3     1  UNL1        0.1149
     15 C         143.4334  139.5957  160.0099 C.3     1  UNL1        0.1124
     16 N         142.0102  139.9795  160.2878 N.pl3   1  UNL1       -0.3028
     17 C         141.3177  140.9789  159.4093 C.3     1  UNL1        0.1124
     18 C         142.0484  141.5944  158.2530 C.3     1  UNL1        0.1149
     19 C         146.7322  142.4177  156.8131 C.3     1  UNL1        0.0267
     20 C         145.6254  141.4424  156.5409 C.3     1  UNL1        0.1286
     21 N         145.9420  140.0833  155.9908 N.3     1  UNL1       -0.3150
     22 H         146.9502  139.9941  155.8640 H       1  UNL1        0.1192
     23 H         145.4744  139.9627  155.0923 H       1  UNL1        0.1192
     24 C         137.5278  137.7623  166.9768 C.3     1  UNL1        0.4187
     25 F         136.7971  137.1467  168.1332 F       1  UNL1       -0.1659
     26 F         137.6206  136.4172  166.3194 F       1  UNL1       -0.1659
     27 F         137.4351  139.1074  167.6341 F       1  UNL1       -0.1659
     28 N         138.7933  141.9451  164.1657 N.pl3   1  UNL1       -0.3290
     29 H         138.2748  142.2816  163.3994 H       1  UNL1        0.1471
     30 C         139.4852  142.9084  165.0840 C.3     1  UNL1        0.1145
     31 C         140.7143  143.6337  164.6221 C.ar    1  UNL1        0.0035
     32 C         140.5875  144.8241  163.7183 C.ar    1  UNL1       -0.0022
     33 C         141.8165  145.5494  163.2564 C.ar    1  UNL1        0.0060
     34 C         143.1724  145.0843  163.6983 C.ar    1  UNL1        0.0752
     35 C         143.2993  143.8939  164.6021 C.ar    1  UNL1        0.2898
     36 C         142.0702  143.1686  165.0640 C.ar    1  UNL1        0.0727
     37 N         144.6551  143.4288  165.0440 N.pl3   1  UNL1        0.0809
     38 O         145.3291  142.2955  164.3290 O.2     1  UNL1        0.0415
     39 O         145.3370  144.0970  166.2009 O.co2   1  UNL1       -0.5760
@<TRIPOS>UNITY_ATOM_ATTR
37 1
charge 1
39 1
charge -1
@<TRIPOS>BOND
     1    20    19    1
     2    20    21    1
     3    20    11    1
     4    11    12    2
     5    11    13   am
     6    13    14    1
     7    14    15    1
     8    15    16    1
     9    16     1    1
    10     1     2   ar
    11     2     3   ar
    12     3     4   ar
    13     4     5   ar
    14     5     6   ar
    15     6    24    1
    16    24    25    1
    17    24    26    1
    18    24    27    1
    19     6     7   ar
    20     7     8   ar
    21     8    28    1
    22    28    30    1
    23    30    31    1
    24    31    32   ar
    25    32    33   ar
    26    33    34   ar
    27    34    35   ar
    28    35    37    1
    29    37    38    2
    30    37    39    1
    31    35    36   ar
    32     8     9   ar
    33     9    10   ar
    34    16    17    1
    35    17    18    1
    36    18    13    1
    37    10     1   ar
    38     9     4   ar
    39    36    31   ar
    40    21    22    1
    41    21    23    1
    42    28    29    1
@<TRIPOS>MOLECULE
*****
 39 42 0 0 0
SMALL
GASTEIGER

@<TRIPOS>ATOM
      1 C         142.3293  142.1132  163.9992 C.ar    1  UNL1        0.0674
      2 C         143.3994  141.7394  163.0168 C.ar    1  UNL1        0.1133
      3 N         143.4135  142.3594  161.6511 N.ar    1  UNL1       -0.2425
      4 C         142.3575  143.3534  161.2677 C.ar    1  UNL1        0.0825
      5 C         142.3716  143.9735  159.9019 C.ar    1  UNL1        0.0230
      6 C         141.3156  144.9674  159.5186 C.ar    1  UNL1        0.0741
      7 C         140.2455  145.3413  160.5010 C.ar    1  UNL1        0.0183
      8 C         140.2314  144.7212  161.8668 C.ar    1  UNL1        0.0463
      9 C         141.2874  143.7272  162.2501 C.ar    1  UNL1        0.0320
     10 C         141.2733  143.1072  163.6158 C.ar    1  UNL1        0.0188
     11 C         142.2729  139.6329  169.4623 C.2     1  UNL1        0.2398
     12 O         143.0006  138.3446  169.7086 O.2     1  UNL1       -0.2734
     13 N         142.2870  140.2530  168.0966 N.am    1  UNL1       -0.2750
     14 C         141.5593  141.5413  167.8503 C.3     1  UNL1        0.1149
     15 C         141.5734  142.1614  166.4844 C.3     1  UNL1        0.1124
     16 N         142.3152  141.4932  165.3650 N.pl3   1  UNL1       -0.3028
     17 C         143.0429  140.2048  165.6113 C.3     1  UNL1        0.1124
     18 C         143.0288  139.5847  166.9770 C.3     1  UNL1        0.1149
     19 C         140.0585  140.0697  170.7491 C.3     1  UNL1        0.0267
     20 C         141.5311  140.3012  170.5817 C.3     1  UNL1        0.1286
     21 N         142.2619  141.2009  171.5338 N.3     1  UNL1       -0.3150
     22 H         141.6079  141.5665  172.2259 H       1  UNL1        0.1192
     23 H         142.6788  141.9755  171.0175 H       1  UNL1        0.1192
     24 C         141.3297  145.5875  158.1528 C.3     1  UNL1        0.4187
     25 F         141.3438  146.2075  156.7870 F       1  UNL1       -0.1659
     26 F         142.6929  145.0126  157.9059 F       1  UNL1       -0.1659
     27 F         139.9664  146.1624  158.3998 F       1  UNL1       -0.1659
     28 N         139.1613  145.0951  162.8491 N.pl3   1  UNL1       -0.3290
     29 H         139.2952  145.8587  163.4559 H       1  UNL1        0.1471
     30 C         137.8873  144.3054  162.9071 C.3     1  UNL1        0.1145
     31 C         137.9271  142.8399  163.2249 C.ar    1  UNL1        0.0035
     32 C         138.1064  142.3846  164.6428 C.ar    1  UNL1       -0.0022
     33 C         138.1462  140.9192  164.9606 C.ar    1  UNL1        0.0060
     34 C         138.0065  139.9091  163.8605 C.ar    1  UNL1        0.0752
     35 C         137.8271  140.3644  162.4426 C.ar    1  UNL1        0.2898
     36 C         137.7874  141.8299  162.1248 C.ar    1  UNL1        0.0727
     37 N         137.6875  139.3544  161.3425 N.pl3   1  UNL1        0.0809
     38 O         137.1927  139.7800  159.9919 O.2     1  UNL1        0.0415
     39 O         138.0427  137.9188  161.5930 O.co2   1  UNL1       -0.5760
@<TRIPOS>UNITY_ATOM_ATTR
37 1
charge 1
39 1
charge -1
@<TRIPOS>BOND
     1    20    19    1
     2    20    21    1
     3    20    11    1
     4    11    12    2
     5    11    13   am
     6    13    14    1
     7    14    15    1
     8    15    16    1
     9    16     1    1
    10     1     2   ar
    11     2     3   ar
    12     3     4   ar
    13     4     5   ar
    14     5     6   ar
    15     6    24    1
    16    24    25    1
    17    24    26    1
    18    24    27    1
    19     6     7   ar
    20     7     8   ar
    21     8    28    1
    22    28    30    1
    23    30    31    1
    24    31    32   ar
    25    32    33   ar
    26    33    34   ar
    27    34    35   ar
    28    35    37    1
    29    37    38    2
    30    37    39    1
    31    35    36   ar
    32     8     9   ar
    33     9    10   ar
    34    16    17    1
    35    17    18    1
    36    18    13    1
    37    10     1   ar
    38     9     4   ar
    39    36    31   ar
    40    21    22    1
    41    21    23    1
    42    28    29    1
@<TRIPOS>MOLECULE
*****
 39 42 0 0 0
SMALL
GASTEIGER

@<TRIPOS>ATOM
      1 C         140.9227  139.9484  163.9855 C.ar    1  UNL1        0.0674
      2 C         139.9184  139.0040  163.3943 C.ar    1  UNL1        0.1133
      3 N         140.1061  138.4867  161.9990 N.ar    1  UNL1       -0.2425
      4 C         141.2981  138.9138  161.1948 C.ar    1  UNL1        0.0825
      5 C         141.4857  138.3965  159.7993 C.ar    1  UNL1        0.0230
      6 C         142.6777  138.8235  158.9951 C.ar    1  UNL1        0.0741
      7 C         143.6821  139.7679  159.5863 C.ar    1  UNL1        0.0183
      8 C         143.4944  140.2852  160.9817 C.ar    1  UNL1        0.0463
      9 C         142.3024  139.8582  161.7859 C.ar    1  UNL1        0.0320
     10 C         142.1147  140.3755  163.1813 C.ar    1  UNL1        0.0188
     11 C         140.1720  142.0177  169.5672 C.2     1  UNL1        0.2398
     12 O         139.2573  141.3013  170.5160 O.2     1  UNL1       -0.2734
     13 N         140.3596  141.5004  168.1718 N.am    1  UNL1       -0.2750
     14 C         141.2743  142.2168  167.2230 C.3     1  UNL1        0.1149
     15 C         141.4620  141.6994  165.8276 C.3     1  UNL1        0.1124
     16 N         140.7350  140.4657  165.3810 N.pl3   1  UNL1       -0.3028
     17 C         139.8203  139.7494  166.3297 C.3     1  UNL1        0.1124
     18 C         139.6327  140.2666  167.7251 C.3     1  UNL1        0.1149
     19 C         142.3610  143.1829  170.3422 C.3     1  UNL1        0.0267
     20 C         140.8989  143.2514  170.0138 C.3     1  UNL1        0.1286
     21 N         140.1639  144.5536  170.1320 N.3     1  UNL1       -0.3150
     22 H         140.8076  145.2800  170.4457 H       1  UNL1        0.1192
     23 H         139.4060  144.4561  170.8076 H       1  UNL1        0.1192
     24 C         142.8654  138.3062  157.5997 C.3     1  UNL1        0.4187
     25 F         143.0531  137.7889  156.2042 F       1  UNL1       -0.1659
     26 F         142.8508  139.7119  157.0766 F       1  UNL1       -0.1659
     27 F         142.8801  136.9005  158.1228 F       1  UNL1       -0.1659
     28 N         144.4987  141.2296  161.5729 N.pl3   1  UNL1       -0.3290
     29 H         145.1900  140.8918  162.1869 H       1  UNL1        0.1471
     30 C         144.4496  142.6887  161.2284 C.3     1  UNL1        0.1145
     31 C         143.4960  143.5972  161.9465 C.ar    1  UNL1        0.0035
     32 C         143.9055  144.2469  163.2349 C.ar    1  UNL1       -0.0022
     33 C         142.9521  145.1553  163.9530 C.ar    1  UNL1        0.0060
     34 C         141.5891  145.4141  163.3826 C.ar    1  UNL1        0.0752
     35 C         141.1796  144.7643  162.0941 C.ar    1  UNL1        0.2898
     36 C         142.1331  143.8558  161.3760 C.ar    1  UNL1        0.0727
     37 N         139.8166  145.0230  161.5237 N.pl3   1  UNL1        0.0809
     38 O         139.3627  146.4307  161.2744 O.2     1  UNL1        0.0415
     39 O         138.9076  143.8739  161.2026 O.co2   1  UNL1       -0.5760
@<TRIPOS>UNITY_ATOM_ATTR
37 1
charge 1
39 1
charge -1
@<TRIPOS>BOND
     1    20    19    1
     2    20    21    1
     3    20    11    1
     4    11    12    2
     5    11    13   am
     6    13    14    1
     7    14    15    1
     8    15    16    1
     9    16     1    1
    10     1     2   ar
    11     2     3   ar
    12     3     4   ar
    13     4     5   ar
    14     5     6   ar
    15     6    24    1
    16    24    25    1
    17    24    26    1
    18    24    27    1
    19     6     7   ar
    20     7     8   ar
    21     8    28    1
    22    28    30    1
    23    30    31    1
    24    31    32   ar
    25    32    33   ar
    26    33    34   ar
    27    34    35   ar
    28    35    37    1
    29    37    38    2
    30    37    39    1
    31    35    36   ar
    32     8     9   ar
    33     9    10   ar
    34    16    17    1
    35    17    18    1
    36    18    13    1
    37    10     1   ar
    38     9     4   ar
    39    36    31   ar
    40    21    22    1
    41    21    23    1
    42    28    29    1
@<TRIPOS>MOLECULE
*****
 39 42 0 0 0
SMALL
GASTEIGER

@<TRIPOS>ATOM
      1 C         139.9575  143.0674  163.3851 C.ar    1  UNL1        0.0674
      2 C         140.1870  144.1164  164.4324 C.ar    1  UNL1        0.1133
      3 N         140.2132  143.7350  165.8828 N.ar    1  UNL1       -0.2425
      4 C         140.0100  142.3046  166.2860 C.ar    1  UNL1        0.0825
      5 C         140.0363  141.9233  167.7366 C.ar    1  UNL1        0.0230
      6 C         139.8330  140.4928  168.1398 C.ar    1  UNL1        0.0741
      7 C         139.6036  139.4437  167.0924 C.ar    1  UNL1        0.0183
      8 C         139.5773  139.8251  165.6420 C.ar    1  UNL1        0.0463
      9 C         139.7805  141.2556  165.2388 C.ar    1  UNL1        0.0320
     10 C         139.7543  141.6369  163.7883 C.ar    1  UNL1        0.0188
     11 C         139.8524  144.5926  157.5832 C.2     1  UNL1        0.2398
     12 O         139.1570  143.7112  156.5884 O.2     1  UNL1       -0.2734
     13 N         139.8787  144.2113  159.0336 N.am    1  UNL1       -0.2750
     14 C         140.5741  145.0928  160.0283 C.3     1  UNL1        0.1149
     15 C         140.6003  144.7114  161.4789 C.3     1  UNL1        0.1124
     16 N         139.9312  143.4487  161.9346 N.pl3   1  UNL1       -0.3028
     17 C         139.2359  142.5672  160.9399 C.3     1  UNL1        0.1124
     18 C         139.2096  142.9485  159.4894 C.3     1  UNL1        0.1149
     19 C         141.9980  145.8685  156.8632 C.3     1  UNL1        0.0267
     20 C         140.5215  145.8554  157.1274 C.3     1  UNL1        0.1286
     21 N         139.7142  147.1050  156.9359 N.3     1  UNL1       -0.3150
     22 H         140.3253  147.8605  156.6260 H       1  UNL1        0.1192
     23 H         139.2741  147.3641  157.8189 H       1  UNL1        0.1192
     24 C         139.8593  140.1115  169.5902 C.3     1  UNL1        0.4187
     25 F         139.8855  139.7301  171.0407 F       1  UNL1       -0.1659
     26 F         138.3622  140.1912  169.6383 F       1  UNL1       -0.1659
     27 F         141.3564  140.0317  169.5421 F       1  UNL1       -0.1659
     28 N         139.3478  138.7761  164.5947 N.pl3   1  UNL1       -0.3290
     29 H         138.4476  138.6448  164.2185 H       1  UNL1        0.1471
     30 C         140.4900  137.9270  164.1207 C.3     1  UNL1        0.1145
     31 C         141.8992  138.4238  164.2531 C.ar    1  UNL1        0.0035
     32 C         142.6802  138.1403  165.5019 C.ar    1  UNL1       -0.0022
     33 C         144.0893  138.6370  165.6343 C.ar    1  UNL1        0.0060
     34 C         144.7175  139.4173  164.5178 C.ar    1  UNL1        0.0752
     35 C         143.9365  139.7008  163.2689 C.ar    1  UNL1        0.2898
     36 C         142.5273  139.2040  163.1366 C.ar    1  UNL1        0.0727
     37 N         144.5647  140.4810  162.1524 N.pl3   1  UNL1        0.0809
     38 O         144.1691  140.2081  160.7315 O.2     1  UNL1        0.0415
     39 O         145.5884  141.5342  162.4568 O.co2   1  UNL1       -0.5760
@<TRIPOS>UNITY_ATOM_ATTR
37 1
charge 1
39 1
charge -1
@<TRIPOS>BOND
     1    20    19    1
     2    20    21    1
     3    20    11    1
     4    11    12    2
     5    11    13   am
     6    13    14    1
     7    14    15    1
     8    15    16    1
     9    16     1    1
    10     1     2   ar
    11     2     3   ar
    12     3     4   ar
    13     4     5   ar
    14     5     6   ar
    15     6    24    1
    16    24    25    1
    17    24    26    1
    18    24    27    1
    19     6     7   ar
    20     7     8   ar
    21     8    28    1
    22    28    30    1
    23    30    31    1
    24    31    32   ar
    25    32    33   ar
    26    33    34   ar
    27    34    35   ar
    28    35    37    1
    29    37    38    2
    30    37    39    1
    31    35    36   ar
    32     8     9   ar
    33     9    10   ar
    34    16    17    1
    35    17    18    1
    36    18    13    1
    37    10     1   ar
    38     9     4   ar
    39    36    31   ar
    40    21    22    1
    41    21    23    1
    42    28    29    1
@<TRIPOS>MOLECULE
*****
 39 42 0 0 0
SMALL
GASTEIGER

@<TRIPOS>ATOM
      1 C         139.6062  139.7710  164.0892 C.ar    1  UNL1        0.0674
      2 C         138.3777  140.4006  163.5022 C.ar    1  UNL1        0.1133
      3 N         138.1339  140.3333  162.0238 N.ar    1  UNL1       -0.2425
      4 C         139.1185  139.6364  161.1322 C.ar    1  UNL1        0.0825
      5 C         138.8746  139.5691  159.6536 C.ar    1  UNL1        0.0230
      6 C         139.8592  138.8722  158.7621 C.ar    1  UNL1        0.0741
      7 C         141.0877  138.2426  159.3491 C.ar    1  UNL1        0.0183
      8 C         141.3316  138.3099  160.8275 C.ar    1  UNL1        0.0463
      9 C         140.3470  139.0068  161.7191 C.ar    1  UNL1        0.0320
     10 C         140.5908  139.0741  163.1976 C.ar    1  UNL1        0.0188
     11 C         140.5816  140.0401  170.0033 C.2     1  UNL1        0.2398
     12 O         139.4744  139.7148  170.9616 O.2     1  UNL1       -0.2734
     13 N         140.3378  139.9729  168.5248 N.am    1  UNL1       -0.2750
     14 C         141.4449  140.2982  167.5665 C.3     1  UNL1        0.1149
     15 C         141.2011  140.2309  166.0879 C.3     1  UNL1        0.1124
     16 N         139.8501  139.8383  165.5677 N.pl3   1  UNL1       -0.3028
     17 C         138.7429  139.5130  166.5260 C.3     1  UNL1        0.1124
     18 C         138.9867  139.5803  168.0045 C.3     1  UNL1        0.1149
     19 C         142.2160  141.8645  170.8695 C.3     1  UNL1        0.0267
     20 C         141.9326  140.4327  170.5235 C.3     1  UNL1        0.1286
     21 N         143.0002  139.3936  170.6976 N.3     1  UNL1       -0.3150
     22 H         143.8472  139.8333  171.0577 H       1  UNL1        0.1192
     23 H         143.2000  138.9572  169.7975 H       1  UNL1        0.1192
     24 C         139.6154  138.8049  157.2836 C.3     1  UNL1        0.4187
     25 F         139.3716  138.7376  155.8050 F       1  UNL1       -0.1659
     26 F         139.6405  137.3066  157.3476 F       1  UNL1       -0.1659
     27 F         139.5903  140.3033  157.2195 F       1  UNL1       -0.1659
     28 N         142.5600  137.6804  161.4145 N.pl3   1  UNL1       -0.3290
     29 H         142.5008  136.8010  161.8532 H       1  UNL1        0.1471
     30 C         143.8787  138.3905  161.3329 C.3     1  UNL1        0.1145
     31 C         144.1193  139.6222  162.1546 C.ar    1  UNL1        0.0035
     32 C         144.5913  139.4971  163.5730 C.ar    1  UNL1       -0.0022
     33 C         144.8319  140.7287  164.3947 C.ar    1  UNL1        0.0060
     34 C         144.6006  142.0855  163.7981 C.ar    1  UNL1        0.0752
     35 C         144.1287  142.2105  162.3798 C.ar    1  UNL1        0.2898
     36 C         143.8880  140.9788  161.5580 C.ar    1  UNL1        0.0727
     37 N         143.8973  143.5671  161.7832 N.pl3   1  UNL1        0.0809
     38 O         143.2962  143.6921  160.4146 O.2     1  UNL1        0.0415
     39 O         144.2672  144.7989  162.5551 O.co2   1  UNL1       -0.5760
@<TRIPOS>UNITY_ATOM_ATTR
37 1
charge 1
39 1
charge -1
@<TRIPOS>BOND
     1    20    19    1
     2    20    21    1
     3    20    11    1
     4    11    12    2
     5    11    13   am
     6    13    14    1
     7    14    15    1
     8    15    16    1
     9    16     1    1
    10     1     2   ar
    11     2     3   ar
    12     3     4   ar
    13     4     5   ar
    14     5     6   ar
    15     6    24    1
    16    24    25    1
    17    24    26    1
    18    24    27    1
    19     6     7   ar
    20     7     8   ar
    21     8    28    1
    22    28    30    1
    23    30    31    1
    24    31    32   ar
    25    32    33   ar
    26    33    34   ar
    27    34    35   ar
    28    35    37    1
    29    37    38    2
    30    37    39    1
    31    35    36   ar
    32     8     9   ar
    33     9    10   ar
    34    16    17    1
    35    17    18    1
    36    18    13    1
    37    10     1   ar
    38     9     4   ar
    39    36    31   ar
    40    21    22    1
    41    21    23    1
    42    28    29    1
@<TRIPOS>MOLECULE
*****
 39 42 0 0 0
SMALL
GASTEIGER

@<TRIPOS>ATOM
      1 C         143.5945  141.5547  162.2343 C.ar    1  UNL1        0.0674
      2 C         144.6844  141.2429  163.2165 C.ar    1  UNL1        0.1133
      3 N         144.4382  141.4069  164.6870 N.ar    1  UNL1       -0.2425
      4 C         143.1021  141.8827  165.1753 C.ar    1  UNL1        0.0825
      5 C         142.8559  142.0467  166.6459 C.ar    1  UNL1        0.0230
      6 C         141.5198  142.5225  167.1342 C.ar    1  UNL1        0.0741
      7 C         140.4299  142.8344  166.1519 C.ar    1  UNL1        0.0183
      8 C         140.6761  142.6704  164.6814 C.ar    1  UNL1        0.0463
      9 C         142.0122  142.1946  164.1931 C.ar    1  UNL1        0.0320
     10 C         142.2584  142.0306  162.7226 C.ar    1  UNL1        0.0188
     11 C         144.5791  140.8989  156.3521 C.2     1  UNL1        0.2398
     12 O         145.2145  142.0098  155.5696 O.2     1  UNL1       -0.2734
     13 N         144.3329  141.0629  157.8226 N.am    1  UNL1       -0.2750
     14 C         143.6976  139.9520  158.6051 C.3     1  UNL1        0.1149
     15 C         143.4514  140.1160  160.0757 C.3     1  UNL1        0.1124
     16 N         143.8406  141.3908  160.7637 N.pl3   1  UNL1       -0.3028
     17 C         144.4760  142.5016  159.9812 C.3     1  UNL1        0.1124
     18 C         144.7221  142.3377  158.5107 C.3     1  UNL1        0.1149
     19 C         142.8442  139.5043  155.0121 C.3     1  UNL1        0.0267
     20 C         144.1899  139.6241  155.6641 C.3     1  UNL1        0.1286
     21 N         145.1463  138.4691  155.6279 N.3     1  UNL1       -0.3150
     22 H         144.7209  137.6911  155.1238 H       1  UNL1        0.1192
     23 H         145.3642  138.1782  156.5810 H       1  UNL1        0.1192
     24 C         141.2736  142.6865  168.6047 C.3     1  UNL1        0.4187
     25 F         141.0275  142.8505  170.0753 F       1  UNL1       -0.1659
     26 F         142.4263  141.7732  168.8996 F       1  UNL1       -0.1659
     27 F         140.1209  143.5999  168.3099 F       1  UNL1       -0.1659
     28 N         139.5862  142.9823  163.6992 N.pl3   1  UNL1       -0.3290
     29 H         139.5687  143.8550  163.2439 H       1  UNL1        0.1471
     30 C         138.5228  141.9644  163.4106 C.3     1  UNL1        0.1145
     31 C         138.6440  140.5756  163.9642 C.ar    1  UNL1        0.0035
     32 C         139.2285  139.4807  163.1218 C.ar    1  UNL1       -0.0022
     33 C         139.3497  138.0919  163.6754 C.ar    1  UNL1        0.0060
     34 C         138.8864  137.7979  165.0714 C.ar    1  UNL1        0.0752
     35 C         138.3019  138.8928  165.9139 C.ar    1  UNL1        0.2898
     36 C         138.1807  140.2816  165.3602 C.ar    1  UNL1        0.0727
     37 N         137.8385  138.5988  167.3099 N.pl3   1  UNL1        0.0809
     38 O         136.7528  137.5904  167.5431 O.2     1  UNL1        0.0415
     39 O         138.4609  139.3132  168.4727 O.co2   1  UNL1       -0.5760
@<TRIPOS>UNITY_ATOM_ATTR
37 1
charge 1
39 1
charge -1
@<TRIPOS>BOND
     1    20    19    1
     2    20    21    1
     3    20    11    1
     4    11    12    2
     5    11    13   am
     6    13    14    1
     7    14    15    1
     8    15    16    1
     9    16     1    1
    10     1     2   ar
    11     2     3   ar
    12     3     4   ar
    13     4     5   ar
    14     5     6   ar
    15     6    24    1
    16    24    25    1
    17    24    26    1
    18    24    27    1
    19     6     7   ar
    20     7     8   ar
    21     8    28    1
    22    28    30    1
    23    30    31    1
    24    31    32   ar
    25    32    33   ar
    26    33    34   ar
    27    34    35   ar
    28    35    37    1
    29    37    38    2
    30    37    39    1
    31    35    36   ar
    32     8     9   ar
    33     9    10   ar
    34    16    17    1
    35    17    18    1
    36    18    13    1
    37    10     1   ar
    38     9     4   ar
    39    36    31   ar
    40    21    22    1
    41    21    23    1
    42    28    29    1
@<TRIPOS>MOLECULE
*****
 39 42 0 0 0
SMALL
GASTEIGER

@<TRIPOS>ATOM
      1 C         141.4193  143.6379  161.2221 C.ar    1  UNL1        0.0674
      2 C         142.8931  143.3955  161.3602 C.ar    1  UNL1        0.1133
      3 N         143.4682  143.0102  162.6908 N.ar    1  UNL1       -0.2425
      4 C         142.5696  142.8673  163.8833 C.ar    1  UNL1        0.0825
      5 C         143.1449  142.4819  165.2140 C.ar    1  UNL1        0.0230
      6 C         142.2462  142.3390  166.4065 C.ar    1  UNL1        0.0741
      7 C         140.7724  142.5815  166.2683 C.ar    1  UNL1        0.0183
      8 C         140.1972  142.9668  164.9377 C.ar    1  UNL1        0.0463
      9 C         141.0958  143.1097  163.7452 C.ar    1  UNL1        0.0320
     10 C         140.5207  143.4950  162.4146 C.ar    1  UNL1        0.0188
     11 C         139.1183  145.1791  155.8994 C.2     1  UNL1        0.2398
     12 O         138.2665  144.2054  155.1403 O.2     1  UNL1       -0.2734
     13 N         139.6936  144.7938  157.2300 N.am    1  UNL1       -0.2750
     14 C         140.5454  145.7675  157.9891 C.3     1  UNL1        0.1149
     15 C         141.1207  145.3822  159.3198 C.3     1  UNL1        0.1124
     16 N         140.8440  144.0232  159.8914 N.pl3   1  UNL1       -0.3028
     17 C         139.9922  143.0495  159.1322 C.3     1  UNL1        0.1124
     18 C         139.4169  143.4348  157.8016 C.3     1  UNL1        0.1149
     19 C         140.4944  146.7198  154.3238 C.3     1  UNL1        0.0267
     20 C         139.3949  146.5380  155.3279 C.3     1  UNL1        0.1286
     21 N         138.5721  147.7153  155.7604 N.3     1  UNL1       -0.3150
     22 H         138.8950  148.5524  155.2753 H       1  UNL1        0.1192
     23 H         138.6698  147.8468  156.7672 H       1  UNL1        0.1192
     24 C         142.8214  141.9537  167.7372 C.3     1  UNL1        0.4187
     25 F         143.3966  141.5683  169.0679 F       1  UNL1       -0.1659
     26 F         141.6435  141.0594  167.9874 F       1  UNL1       -0.1659
     27 F         143.9993  142.8480  167.4870 F       1  UNL1       -0.1659
     28 N         138.7234  143.2092  164.7996 N.pl3   1  UNL1       -0.3290
     29 H         138.3471  144.0921  165.0190 H       1  UNL1        0.1471
     30 C         137.8230  142.1064  164.3271 C.3     1  UNL1        0.1145
     31 C         138.2751  140.6789  164.4161 C.ar    1  UNL1        0.0035
     32 C         138.1602  139.9353  165.7137 C.ar    1  UNL1       -0.0022
     33 C         138.6123  138.5079  165.8028 C.ar    1  UNL1        0.0060
     34 C         139.1794  137.8240  164.5941 C.ar    1  UNL1        0.0752
     35 C         139.2943  138.5676  163.2965 C.ar    1  UNL1        0.2898
     36 C         138.8422  139.9951  163.2075 C.ar    1  UNL1        0.0727
     37 N         139.8614  137.8837  162.0879 N.pl3   1  UNL1        0.0809
     38 O         141.1754  137.1662  162.1796 O.2     1  UNL1        0.0415
     39 O         139.1144  137.9175  160.7876 O.co2   1  UNL1       -0.5760
@<TRIPOS>UNITY_ATOM_ATTR
37 1
charge 1
39 1
charge -1
@<TRIPOS>BOND
     1    20    19    1
     2    20    21    1
     3    20    11    1
     4    11    12    2
     5    11    13   am
     6    13    14    1
     7    14    15    1
     8    15    16    1
     9    16     1    1
    10     1     2   ar
    11     2     3   ar
    12     3     4   ar
    13     4     5   ar
    14     5     6   ar
    15     6    24    1
    16    24    25    1
    17    24    26    1
    18    24    27    1
    19     6     7   ar
    20     7     8   ar
    21     8    28    1
    22    28    30    1
    23    30    31    1
    24    31    32   ar
    25    32    33   ar
    26    33    34   ar
    27    34    35   ar
    28    35    37    1
    29    37    38    2
    30    37    39    1
    31    35    36   ar
    32     8     9   ar
    33     9    10   ar
    34    16    17    1
    35    17    18    1
    36    18    13    1
    37    10     1   ar
    38     9     4   ar
    39    36    31   ar
    40    21    22    1
    41    21    23    1
    42    28    29    1
