@<TRIPOS>MOLECULE
*****
 39 43 0 0 0
SMALL
GASTEIGER

@<TRIPOS>ATOM
      1 C         143.2112  140.1058  161.8703 C.ar    1  UNL1        0.2221
      2 N         143.3503  138.7525  161.2385 N.ar    1  UNL1       -0.2119
      3 C         142.5044  137.6103  161.7183 C.ar    1  UNL1        0.1050
      4 C         141.5196  137.8216  162.8297 C.ar    1  UNL1        0.0596
      5 C         141.3805  139.1749  163.4615 C.ar    1  UNL1        0.1683
      6 N         142.2262  140.3170  162.9818 N.ar    1  UNL1       -0.1944
      7 N         140.3956  139.3861  164.5729 N.ar    1  UNL1       -0.2092
      8 C         140.7069  139.3779  166.0402 C.ar    1  UNL1        0.1179
      9 C         139.4302  139.6294  166.7864 C.ar    1  UNL1        0.0853
     10 C         138.3298  139.7930  165.7801 C.ar    1  UNL1        0.1364
     11 N         138.9265  139.6427  164.4122 N.ar    1  UNL1       -0.1608
     12 N         139.2801  139.7041  168.2770 N.pl3   1  UNL1       -0.3303
     13 H         138.7550  139.0213  168.7537 H       1  UNL1        0.1469
     14 C         139.9302  140.8191  169.0413 C.3     1  UNL1        0.0884
     15 C         140.3115  142.0880  168.3378 C.3     1  UNL1        0.0530
     16 C         140.9615  143.2030  169.1021 C.3     1  UNL1        0.1440
     17 O         141.2303  143.0493  170.5698 O.3     1  UNL1       -0.3522
     18 C         140.8489  141.7805  171.2732 C.3     1  UNL1        0.1592
     19 C         140.1989  140.6654  170.5090 C.3     1  UNL1        0.0990
     20 N         139.8176  139.3967  171.2124 N.3     1  UNL1       -0.3189
     21 H         140.0712  139.4650  172.1980 H       1  UNL1        0.1189
     22 H         140.3108  138.6112  170.7880 H       1  UNL1        0.1189
     23 N         144.0570  141.2480  161.3906 N.pl3   1  UNL1       -0.2824
     24 H         144.9815  141.3459  161.7145 H       1  UNL1        0.1551
     25 C         140.6847  145.1254  159.9701 C.ar    1  UNL1        0.1517
     26 N         140.5722  145.8479  158.6604 N.ar    1  UNL1       -0.2260
     27 C         141.6129  145.2927  157.7338 C.ar    1  UNL1        0.1248
     28 C         141.8553  145.7268  156.3186 C.3     1  UNL1        0.0722
     29 N         142.3686  144.2270  158.4708 N.ar    1  UNL1       -0.2920
     30 C         143.5050  143.3374  158.0619 C.ar    1  UNL1        0.0824
     31 C         144.0678  142.3444  159.0352 C.ar    1  UNL1        0.0337
     32 C         143.4942  142.2410  160.4173 C.ar    1  UNL1        0.0535
     33 C         142.3578  143.1306  160.8262 C.ar    1  UNL1        0.0339
     34 C         141.7950  144.1236  159.8529 C.ar    1  UNL1        0.0884
     35 C         138.1336  144.4946  162.9441 C.3     1  UNL1        0.1110
     36 N         138.9823  144.2570  161.7303 N.am    1  UNL1       -0.2979
     37 C         139.8360  145.3629  161.1839 C.2     1  UNL1        0.2651
     38 O         139.8409  146.7061  161.8514 O.2     1  UNL1       -0.2684
     39 H         138.9791  143.3754  161.2922 H       1  UNL1        0.1498
@<TRIPOS>BOND
     1    35    36    1
     2    36    37   am
     3    37    38    2
     4    37    25    1
     5    25    26   ar
     6    26    27   ar
     7    27    28    1
     8    27    29   ar
     9    29    30   ar
    10    30    31   ar
    11    31    32   ar
    12    32    23    1
    13    23     1    1
    14     1     2   ar
    15     2     3   ar
    16     3     4   ar
    17     4     5   ar
    18     5     7    1
    19     7     8   ar
    20     8     9   ar
    21     9    12    1
    22    14    12    1
    23    14    15    1
    24    15    16    1
    25    16    17    1
    26    17    18    1
    27    18    19    1
    28    19    20    1
    29     9    10   ar
    30    10    11   ar
    31     5     6   ar
    32    32    33   ar
    33    33    34   ar
    34    34    25   ar
    35    34    29   ar
    36     6     1   ar
    37    11     7   ar
    38    19    14    1
    39    36    39    1
    40    23    24    1
    41    12    13    1
    42    20    21    1
    43    20    22    1
@<TRIPOS>MOLECULE
*****
 39 43 0 0 0
SMALL
GASTEIGER

@<TRIPOS>ATOM
      1 C         143.9454  143.3325  161.9515 C.ar    1  UNL1        0.2221
      2 N         143.9420  144.6842  162.6020 N.ar    1  UNL1       -0.2119
      3 C         143.8190  144.7989  164.0926 C.ar    1  UNL1        0.1050
      4 C         143.6994  143.5620  164.9326 C.ar    1  UNL1        0.0596
      5 C         143.7027  142.2103  164.2822 C.ar    1  UNL1        0.1683
      6 N         143.8257  142.0956  162.7917 N.ar    1  UNL1       -0.1944
      7 N         143.5831  140.9734  165.1222 N.ar    1  UNL1       -0.2092
      8 C         143.0941  140.9138  166.5390 C.ar    1  UNL1        0.1179
      9 C         143.1402  139.4825  166.9854 C.ar    1  UNL1        0.0853
     10 C         143.6577  138.6576  165.8445 C.ar    1  UNL1        0.1364
     11 N         143.9314  139.5790  164.6930 N.ar    1  UNL1       -0.1608
     12 N         142.7392  138.9667  168.3356 N.pl3   1  UNL1       -0.3303
     13 H         143.1058  138.1147  168.6659 H       1  UNL1        0.1469
     14 C         141.7796  139.7488  169.1827 C.3     1  UNL1        0.0884
     15 C         140.4156  140.0841  168.6560 C.3     1  UNL1        0.0530
     16 C         139.4560  140.8663  169.5031 C.3     1  UNL1        0.1440
     17 O         139.8603  141.3131  170.8767 O.3     1  UNL1       -0.3522
     18 C         141.2243  140.9778  171.4033 C.3     1  UNL1        0.1592
     19 C         142.1839  140.1956  170.5563 C.3     1  UNL1        0.0990
     20 N         143.5477  139.8603  171.0829 N.3     1  UNL1       -0.3189
     21 H         143.6513  140.2392  172.0243 H       1  UNL1        0.1189
     22 H         144.2571  140.2666  170.4729 H       1  UNL1        0.1189
     23 N         144.0684  143.2178  160.4610 N.pl3   1  UNL1       -0.2824
     24 H         144.9583  143.2045  160.0401 H       1  UNL1        0.1551
     25 C         138.7997  142.8023  159.7591 C.ar    1  UNL1        0.1517
     26 N         138.0177  142.7455  158.4804 N.ar    1  UNL1       -0.2260
     27 C         138.9881  142.8272  157.3396 C.ar    1  UNL1        0.1248
     28 C         138.6382  142.8055  155.8811 C.3     1  UNL1        0.0722
     29 N         140.3699  142.9346  157.9132 N.ar    1  UNL1       -0.2920
     30 C         141.7192  143.0444  157.2671 C.ar    1  UNL1        0.0824
     31 C         142.9519  143.1388  158.1163 C.ar    1  UNL1        0.0337
     32 C         142.8355  143.1234  159.6117 C.ar    1  UNL1        0.0535
     33 C         141.4863  143.0136  160.2579 C.ar    1  UNL1        0.0339
     34 C         140.2535  142.9192  159.4086 C.ar    1  UNL1        0.0884
     35 C         137.7555  143.8987  163.4277 C.3     1  UNL1        0.1110
     36 N         138.3269  143.9498  162.0417 N.am    1  UNL1       -0.2979
     37 C         138.2284  142.7512  161.1451 C.2     1  UNL1        0.2651
     38 O         137.5585  141.5016  161.6347 O.2     1  UNL1       -0.2684
     39 H         138.7666  144.7700  161.7204 H       1  UNL1        0.1498
@<TRIPOS>BOND
     1    35    36    1
     2    36    37   am
     3    37    38    2
     4    37    25    1
     5    25    26   ar
     6    26    27   ar
     7    27    28    1
     8    27    29   ar
     9    29    30   ar
    10    30    31   ar
    11    31    32   ar
    12    32    23    1
    13    23     1    1
    14     1     2   ar
    15     2     3   ar
    16     3     4   ar
    17     4     5   ar
    18     5     7    1
    19     7     8   ar
    20     8     9   ar
    21     9    12    1
    22    14    12    1
    23    14    15    1
    24    15    16    1
    25    16    17    1
    26    17    18    1
    27    18    19    1
    28    19    20    1
    29     9    10   ar
    30    10    11   ar
    31     5     6   ar
    32    32    33   ar
    33    33    34   ar
    34    34    25   ar
    35    34    29   ar
    36     6     1   ar
    37    11     7   ar
    38    19    14    1
    39    36    39    1
    40    23    24    1
    41    12    13    1
    42    20    21    1
    43    20    22    1
@<TRIPOS>MOLECULE
*****
 39 43 0 0 0
SMALL
GASTEIGER

@<TRIPOS>ATOM
      1 C         139.7974  145.0811  161.2835 C.ar    1  UNL1        0.2221
      2 N         140.0244  145.9452  160.0786 N.ar    1  UNL1       -0.2119
      3 C         140.0923  145.3263  158.7138 C.ar    1  UNL1        0.1050
      4 C         139.9330  143.8434  158.5541 C.ar    1  UNL1        0.0596
      5 C         139.7060  142.9793  159.7590 C.ar    1  UNL1        0.1683
      6 N         139.6381  143.5981  161.1236 N.ar    1  UNL1       -0.1944
      7 N         139.5467  141.4964  159.5992 N.ar    1  UNL1       -0.2092
      8 C         139.4742  140.4925  160.7114 C.ar    1  UNL1        0.1179
      9 C         139.3147  139.1327  160.0987 C.ar    1  UNL1        0.0853
     10 C         139.2887  139.2961  158.6078 C.ar    1  UNL1        0.1364
     11 N         139.4321  140.7570  158.2991 N.ar    1  UNL1       -0.1608
     12 N         139.2012  137.8369  160.8457 N.pl3   1  UNL1       -0.3303
     13 H         138.8498  137.0366  160.3926 H       1  UNL1        0.1469
     14 C         139.6229  137.7604  162.2832 C.3     1  UNL1        0.0884
     15 C         138.6057  137.9263  163.3731 C.3     1  UNL1        0.0530
     16 C         139.0275  137.8498  164.8106 C.3     1  UNL1        0.1440
     17 O         140.4664  137.6074  165.1582 O.3     1  UNL1       -0.3522
     18 C         141.4836  137.4416  164.0682 C.3     1  UNL1        0.1592
     19 C         141.0618  137.5181  162.6308 C.3     1  UNL1        0.0990
     20 N         142.0790  137.3522  161.5409 N.3     1  UNL1       -0.3189
     21 H         142.9982  137.1966  161.9546 H       1  UNL1        0.1189
     22 H         142.1027  138.1950  160.9669 H       1  UNL1        0.1189
     23 N         139.7296  145.6999  162.6482 N.pl3   1  UNL1       -0.2824
     24 H         139.5372  146.6607  162.7440 H       1  UNL1        0.1551
     25 C         142.7167  142.6157  165.8086 C.ar    1  UNL1        0.1517
     26 N         142.3478  141.9465  167.0994 N.ar    1  UNL1       -0.2260
     27 C         140.9192  142.2860  167.4057 C.ar    1  UNL1        0.1248
     28 C         140.1412  141.8270  168.6033 C.3     1  UNL1        0.0722
     29 N         140.4052  143.1650  166.3043 N.ar    1  UNL1       -0.2920
     30 C         139.0691  143.8062  166.0727 C.ar    1  UNL1        0.0824
     31 C         138.8439  144.6511  164.8540 C.ar    1  UNL1        0.0337
     32 C         139.9548  144.8549  163.8669 C.ar    1  UNL1        0.0535
     33 C         141.2909  144.2138  164.0985 C.ar    1  UNL1        0.0339
     34 C         141.5161  143.3688  165.3172 C.ar    1  UNL1        0.0884
     35 C         145.8054  141.2145  163.7479 C.3     1  UNL1        0.1110
     36 N         144.4704  141.2858  164.4279 N.am    1  UNL1       -0.2979
     37 C         144.0518  142.5444  165.1286 C.2     1  UNL1        0.2651
     38 O         144.9683  143.7315  165.1491 O.2     1  UNL1       -0.2684
     39 H         143.8688  140.5066  164.4144 H       1  UNL1        0.1498
@<TRIPOS>BOND
     1    35    36    1
     2    36    37   am
     3    37    38    2
     4    37    25    1
     5    25    26   ar
     6    26    27   ar
     7    27    28    1
     8    27    29   ar
     9    29    30   ar
    10    30    31   ar
    11    31    32   ar
    12    32    23    1
    13    23     1    1
    14     1     2   ar
    15     2     3   ar
    16     3     4   ar
    17     4     5   ar
    18     5     7    1
    19     7     8   ar
    20     8     9   ar
    21     9    12    1
    22    14    12    1
    23    14    15    1
    24    15    16    1
    25    16    17    1
    26    17    18    1
    27    18    19    1
    28    19    20    1
    29     9    10   ar
    30    10    11   ar
    31     5     6   ar
    32    32    33   ar
    33    33    34   ar
    34    34    25   ar
    35    34    29   ar
    36     6     1   ar
    37    11     7   ar
    38    19    14    1
    39    36    39    1
    40    23    24    1
    41    12    13    1
    42    20    21    1
    43    20    22    1
@<TRIPOS>MOLECULE
*****
 39 43 0 0 0
SMALL
GASTEIGER

@<TRIPOS>ATOM
      1 C         138.2838  142.6181  161.6482 C.ar    1  UNL1        0.2221
      2 N         137.8935  144.0205  162.0100 N.ar    1  UNL1       -0.2119
      3 C         137.8352  144.4349  163.4505 C.ar    1  UNL1        0.1050
      4 C         138.1672  143.4469  164.5291 C.ar    1  UNL1        0.0596
      5 C         138.5575  142.0445  164.1674 C.ar    1  UNL1        0.1683
      6 N         138.6158  141.6300  162.7270 N.ar    1  UNL1       -0.1944
      7 N         138.8895  141.0564  165.2460 N.ar    1  UNL1       -0.2092
      8 C         140.0739  141.1184  166.1644 C.ar    1  UNL1        0.1179
      9 C         140.0118  139.9333  167.0817 C.ar    1  UNL1        0.0853
     10 C         138.7889  139.1387  166.7302 C.ar    1  UNL1        0.1364
     11 N         138.0954  139.8329  165.5957 N.ar    1  UNL1       -0.1608
     12 N         140.9991  139.6009  168.1609 N.pl3   1  UNL1       -0.3303
     13 H         141.3871  138.6975  168.2119 H       1  UNL1        0.1469
     14 C         141.3953  140.6450  169.1624 C.3     1  UNL1        0.0884
     15 C         142.5886  141.5167  168.9049 C.3     1  UNL1        0.0530
     16 C         142.9848  142.5608  169.9064 C.3     1  UNL1        0.1440
     17 O         142.1877  142.7332  171.1653 O.3     1  UNL1       -0.3522
     18 C         140.9944  141.8614  171.4228 C.3     1  UNL1        0.1592
     19 C         140.5982  140.8174  170.4213 C.3     1  UNL1        0.0990
     20 N         139.4050  139.9457  170.6788 N.3     1  UNL1       -0.3189
     21 H         138.9862  140.1985  171.5739 H       1  UNL1        0.1189
     22 H         139.6967  138.9687  170.7037 H       1  UNL1        0.1189
     23 N         138.3421  142.2037  160.2078 N.pl3   1  UNL1       -0.2824
     24 H         137.7039  142.5818  159.5606 H       1  UNL1        0.1551
     25 C         143.3131  140.2933  159.9558 C.ar    1  UNL1        0.1517
     26 N         143.8239  139.0778  159.2406 N.ar    1  UNL1       -0.2260
     27 C         142.6628  138.4219  158.5539 C.ar    1  UNL1        0.1248
     28 C         142.7200  137.1749  157.7223 C.3     1  UNL1        0.0722
     29 N         141.4343  139.2321  158.8448 N.ar    1  UNL1       -0.2920
     30 C         140.0017  139.0660  158.4327 C.ar    1  UNL1        0.0824
     31 C         138.9710  140.0565  158.8870 C.ar    1  UNL1        0.0337
     32 C         139.3729  141.2131  159.7535 C.ar    1  UNL1        0.0535
     33 C         140.8056  141.3792  160.1656 C.ar    1  UNL1        0.0339
     34 C         141.8363  140.3886  159.7113 C.ar    1  UNL1        0.0884
     35 C         145.4534  141.7902  162.9440 C.3     1  UNL1        0.1110
     36 N         144.6317  140.8373  162.1275 N.am    1  UNL1       -0.2979
     37 C         144.1349  141.2462  160.7724 C.2     1  UNL1        0.2651
     38 O         144.4599  142.6079  160.2340 O.2     1  UNL1       -0.2684
     39 H         144.4183  139.9435  162.4809 H       1  UNL1        0.1498
@<TRIPOS>BOND
     1    35    36    1
     2    36    37   am
     3    37    38    2
     4    37    25    1
     5    25    26   ar
     6    26    27   ar
     7    27    28    1
     8    27    29   ar
     9    29    30   ar
    10    30    31   ar
    11    31    32   ar
    12    32    23    1
    13    23     1    1
    14     1     2   ar
    15     2     3   ar
    16     3     4   ar
    17     4     5   ar
    18     5     7    1
    19     7     8   ar
    20     8     9   ar
    21     9    12    1
    22    14    12    1
    23    14    15    1
    24    15    16    1
    25    16    17    1
    26    17    18    1
    27    18    19    1
    28    19    20    1
    29     9    10   ar
    30    10    11   ar
    31     5     6   ar
    32    32    33   ar
    33    33    34   ar
    34    34    25   ar
    35    34    29   ar
    36     6     1   ar
    37    11     7   ar
    38    19    14    1
    39    36    39    1
    40    23    24    1
    41    12    13    1
    42    20    21    1
    43    20    22    1
@<TRIPOS>MOLECULE
*****
 39 43 0 0 0
SMALL
GASTEIGER

@<TRIPOS>ATOM
      1 C         144.4424  142.3984  159.4084 C.ar    1  UNL1        0.2221
      2 N         145.0358  142.5609  158.0404 N.ar    1  UNL1       -0.2119
      3 C         144.2199  142.2330  156.8251 C.ar    1  UNL1        0.1050
      4 C         142.8106  141.7426  156.9779 C.ar    1  UNL1        0.0596
      5 C         142.2172  141.5801  158.3459 C.ar    1  UNL1        0.1683
      6 N         143.0330  141.9080  159.5611 N.ar    1  UNL1       -0.1944
      7 N         140.8079  141.0898  158.4986 N.ar    1  UNL1       -0.2092
      8 C         140.1096  140.8034  159.7950 C.ar    1  UNL1        0.1179
      9 C         138.7196  140.3363  159.4794 C.ar    1  UNL1        0.0853
     10 C         138.5588  140.3339  157.9880 C.ar    1  UNL1        0.1364
     11 N         139.8494  140.7996  157.3819 N.ar    1  UNL1       -0.1608
     12 N         137.6739  139.9410  160.4796 N.pl3   1  UNL1       -0.3303
     13 H         136.7196  140.0109  160.2478 H       1  UNL1        0.1469
     14 C         138.0822  139.4392  161.8329 C.3     1  UNL1        0.0884
     15 C         138.8412  138.1514  161.9577 C.3     1  UNL1        0.0530
     16 C         139.2495  137.6496  163.3111 C.3     1  UNL1        0.1440
     17 O         138.8988  138.4356  164.5396 O.3     1  UNL1       -0.3522
     18 C         138.1398  139.7234  164.4148 C.3     1  UNL1        0.1592
     19 C         137.7315  140.2252  163.0614 C.3     1  UNL1        0.0990
     20 N         136.9725  141.5129  162.9366 N.3     1  UNL1       -0.3189
     21 H         136.8218  141.9100  163.8640 H       1  UNL1        0.1189
     22 H         136.0717  141.3350  162.4925 H       1  UNL1        0.1189
     23 N         145.2583  142.7262  160.6236 N.pl3   1  UNL1       -0.2824
     24 H         146.2017  142.9903  160.5266 H       1  UNL1        0.1551
     25 C         141.3603  143.6930  164.1301 C.ar    1  UNL1        0.1517
     26 N         141.2798  143.3209  165.5810 N.ar    1  UNL1       -0.2260
     27 C         142.5365  142.5854  165.9412 C.ar    1  UNL1        0.1248
     28 C         142.8764  142.0299  167.2925 C.3     1  UNL1        0.0722
     29 N         143.3936  142.5028  164.7130 N.ar    1  UNL1       -0.2920
     30 C         144.7421  141.8927  164.4693 C.ar    1  UNL1        0.0824
     31 C         145.3636  141.9672  163.1062 C.ar    1  UNL1        0.0337
     32 C         144.6367  142.6518  161.9868 C.ar    1  UNL1        0.0535
     33 C         143.2882  143.2618  162.2305 C.ar    1  UNL1        0.0339
     34 C         142.6667  143.1873  163.5936 C.ar    1  UNL1        0.0884
     35 C         139.6414  146.4437  161.8434 C.3     1  UNL1        0.1110
     36 N         140.6843  145.6971  162.6213 N.am    1  UNL1       -0.2979
     37 C         140.3175  144.4396  163.3522 C.2     1  UNL1        0.2651
     38 O         138.9080  143.9287  163.3051 O.2     1  UNL1       -0.2684
     39 H         141.6094  146.0325  162.6522 H       1  UNL1        0.1498
@<TRIPOS>BOND
     1    35    36    1
     2    36    37   am
     3    37    38    2
     4    37    25    1
     5    25    26   ar
     6    26    27   ar
     7    27    28    1
     8    27    29   ar
     9    29    30   ar
    10    30    31   ar
    11    31    32   ar
    12    32    23    1
    13    23     1    1
    14     1     2   ar
    15     2     3   ar
    16     3     4   ar
    17     4     5   ar
    18     5     7    1
    19     7     8   ar
    20     8     9   ar
    21     9    12    1
    22    14    12    1
    23    14    15    1
    24    15    16    1
    25    16    17    1
    26    17    18    1
    27    18    19    1
    28    19    20    1
    29     9    10   ar
    30    10    11   ar
    31     5     6   ar
    32    32    33   ar
    33    33    34   ar
    34    34    25   ar
    35    34    29   ar
    36     6     1   ar
    37    11     7   ar
    38    19    14    1
    39    36    39    1
    40    23    24    1
    41    12    13    1
    42    20    21    1
    43    20    22    1
@<TRIPOS>MOLECULE
*****
 39 43 0 0 0
SMALL
GASTEIGER

@<TRIPOS>ATOM
      1 C         143.9012  139.9075  159.6743 C.ar    1  UNL1        0.2221
      2 N         144.0736  139.4888  158.2443 N.ar    1  UNL1       -0.2119
      3 C         143.5449  140.3557  157.1401 C.ar    1  UNL1        0.1050
      4 C         142.8439  141.6411  157.4660 C.ar    1  UNL1        0.0596
      5 C         142.6715  142.0597  158.8960 C.ar    1  UNL1        0.1683
      6 N         143.2001  141.1930  160.0002 N.ar    1  UNL1       -0.1944
      7 N         141.9705  143.3451  159.2219 N.ar    1  UNL1       -0.2092
      8 C         140.9862  143.5553  160.3342 C.ar    1  UNL1        0.1179
      9 C         140.5381  144.9861  160.2925 C.ar    1  UNL1        0.0853
     10 C         141.2454  145.6604  159.1544 C.ar    1  UNL1        0.1364
     11 N         142.1307  144.6462  158.4928 N.ar    1  UNL1       -0.1608
     12 N         139.5552  145.6298  161.2250 N.pl3   1  UNL1       -0.3303
     13 H         139.1141  146.4723  160.9704 H       1  UNL1        0.1469
     14 C         139.2444  144.9898  162.5456 C.3     1  UNL1        0.0884
     15 C         137.9486  144.2592  162.7385 C.3     1  UNL1        0.0530
     16 C         137.6378  143.6192  164.0590 C.3     1  UNL1        0.1440
     17 O         138.6228  143.7097  165.1867 O.3     1  UNL1       -0.3522
     18 C         139.9187  144.4403  164.9938 C.3     1  UNL1        0.1592
     19 C         140.2294  145.0803  163.6732 C.3     1  UNL1        0.0990
     20 N         141.5252  145.8108  163.4803 N.3     1  UNL1       -0.3189
     21 H         142.0685  145.7729  164.3428 H       1  UNL1        0.1189
     22 H         141.3346  146.7838  163.2409 H       1  UNL1        0.1189
     23 N         144.4298  139.0407  160.7785 N.pl3   1  UNL1       -0.2824
     24 H         145.1183  138.3637  160.5862 H       1  UNL1        0.1551
     25 C         140.5925  138.8534  164.4749 C.ar    1  UNL1        0.1517
     26 N         140.6702  139.1829  165.9362 N.ar    1  UNL1       -0.2260
     27 C         142.0771  139.6038  166.2422 C.ar    1  UNL1        0.1248
     28 C         142.6004  140.0208  167.5847 C.3     1  UNL1        0.0722
     29 N         142.8688  139.5344  164.9701 N.ar    1  UNL1       -0.2920
     30 C         144.3066  139.8336  164.6652 C.ar    1  UNL1        0.0824
     31 C         144.8270  139.6690  163.2680 C.ar    1  UNL1        0.0337
     32 C         143.9094  139.2052  162.1757 C.ar    1  UNL1        0.0535
     33 C         142.4716  138.9060  162.4806 C.ar    1  UNL1        0.0339
     34 C         141.9513  139.0706  163.8778 C.ar    1  UNL1        0.0884
     35 C         137.7161  138.6231  161.7502 C.3     1  UNL1        0.1110
     36 N         138.9381  139.0882  162.4854 N.am    1  UNL1       -0.2979
     37 C         139.3705  138.3883  163.7398 C.2     1  UNL1        0.2651
     38 O         138.5809  137.2235  164.2588 O.2     1  UNL1       -0.2684
     39 H         139.4563  139.8527  162.1447 H       1  UNL1        0.1498
@<TRIPOS>BOND
     1    35    36    1
     2    36    37   am
     3    37    38    2
     4    37    25    1
     5    25    26   ar
     6    26    27   ar
     7    27    28    1
     8    27    29   ar
     9    29    30   ar
    10    30    31   ar
    11    31    32   ar
    12    32    23    1
    13    23     1    1
    14     1     2   ar
    15     2     3   ar
    16     3     4   ar
    17     4     5   ar
    18     5     7    1
    19     7     8   ar
    20     8     9   ar
    21     9    12    1
    22    14    12    1
    23    14    15    1
    24    15    16    1
    25    16    17    1
    26    17    18    1
    27    18    19    1
    28    19    20    1
    29     9    10   ar
    30    10    11   ar
    31     5     6   ar
    32    32    33   ar
    33    33    34   ar
    34    34    25   ar
    35    34    29   ar
    36     6     1   ar
    37    11     7   ar
    38    19    14    1
    39    36    39    1
    40    23    24    1
    41    12    13    1
    42    20    21    1
    43    20    22    1
@<TRIPOS>MOLECULE
*****
 39 43 0 0 0
SMALL
GASTEIGER

@<TRIPOS>ATOM
      1 C         142.5179  144.0739  160.8717 C.ar    1  UNL1        0.2221
      2 N         143.6287  143.3835  160.1372 N.ar    1  UNL1       -0.2119
      3 C         144.4360  142.3220  160.8241 C.ar    1  UNL1        0.1050
      4 C         144.1324  141.9510  162.2453 C.ar    1  UNL1        0.0596
      5 C         143.0215  142.6413  162.9798 C.ar    1  UNL1        0.1683
      6 N         142.2143  143.7028  162.2931 N.ar    1  UNL1       -0.1944
      7 N         142.7179  142.2702  164.4011 N.ar    1  UNL1       -0.2092
      8 C         143.4446  142.7658  165.6162 C.ar    1  UNL1        0.1179
      9 C         142.8101  142.1403  166.8230 C.ar    1  UNL1        0.0853
     10 C         141.6913  141.2581  166.3536 C.ar    1  UNL1        0.1364
     11 N         141.6344  141.3385  164.8569 N.ar    1  UNL1       -0.1608
     12 N         143.2221  142.3585  168.2487 N.pl3   1  UNL1       -0.3303
     13 H         144.1677  142.5219  168.4683 H       1  UNL1        0.1469
     14 C         142.1932  142.3279  169.3397 C.3     1  UNL1        0.0884
     15 C         141.0407  143.2877  169.3110 C.3     1  UNL1        0.0530
     16 C         140.0118  143.2571  170.4021 C.3     1  UNL1        0.1440
     17 O         140.1353  142.2667  171.5219 O.3     1  UNL1       -0.3522
     18 C         141.2877  141.3068  171.5506 C.3     1  UNL1        0.1592
     19 C         142.3166  141.3375  170.4595 C.3     1  UNL1        0.0990
     20 N         143.4690  140.3777  170.4882 N.3     1  UNL1       -0.3189
     21 H         143.3950  139.7822  171.3130 H       1  UNL1        0.1189
     22 H         144.3449  140.8991  170.5227 H       1  UNL1        0.1189
     23 N         141.7107  145.1353  160.1849 N.pl3   1  UNL1       -0.2824
     24 H         141.7413  146.0643  160.5095 H       1  UNL1        0.1551
     25 C         138.9127  146.3417  155.8100 C.ar    1  UNL1        0.1517
     26 N         138.1558  145.4300  154.8903 N.ar    1  UNL1       -0.2260
     27 C         138.3019  144.0282  155.4038 C.ar    1  UNL1        0.1248
     28 C         137.7055  142.7971  154.7883 C.3     1  UNL1        0.0722
     29 N         139.1490  144.0736  156.6409 N.ar    1  UNL1       -0.2920
     30 C         139.6254  142.9977  157.5711 C.ar    1  UNL1        0.0824
     31 C         140.4793  143.3516  158.7524 C.ar    1  UNL1        0.0337
     32 C         140.8568  144.7814  159.0035 C.ar    1  UNL1        0.0535
     33 C         140.3804  145.8573  158.0733 C.ar    1  UNL1        0.0339
     34 C         139.5265  145.5034  156.8920 C.ar    1  UNL1        0.0884
     35 C         138.5786  150.2194  156.5859 C.3     1  UNL1        0.1110
     36 N         138.4569  148.7308  156.7238 N.am    1  UNL1       -0.2979
     37 C         139.0344  147.8304  155.6721 C.2     1  UNL1        0.2651
     38 O         139.7334  148.4188  154.4826 O.2     1  UNL1       -0.2684
     39 H         137.9981  148.3446  157.5046 H       1  UNL1        0.1498
@<TRIPOS>BOND
     1    35    36    1
     2    36    37   am
     3    37    38    2
     4    37    25    1
     5    25    26   ar
     6    26    27   ar
     7    27    28    1
     8    27    29   ar
     9    29    30   ar
    10    30    31   ar
    11    31    32   ar
    12    32    23    1
    13    23     1    1
    14     1     2   ar
    15     2     3   ar
    16     3     4   ar
    17     4     5   ar
    18     5     7    1
    19     7     8   ar
    20     8     9   ar
    21     9    12    1
    22    14    12    1
    23    14    15    1
    24    15    16    1
    25    16    17    1
    26    17    18    1
    27    18    19    1
    28    19    20    1
    29     9    10   ar
    30    10    11   ar
    31     5     6   ar
    32    32    33   ar
    33    33    34   ar
    34    34    25   ar
    35    34    29   ar
    36     6     1   ar
    37    11     7   ar
    38    19    14    1
    39    36    39    1
    40    23    24    1
    41    12    13    1
    42    20    21    1
    43    20    22    1
@<TRIPOS>MOLECULE
*****
 39 43 0 0 0
SMALL
GASTEIGER

@<TRIPOS>ATOM
      1 C         139.2637  144.0597  161.8852 C.ar    1  UNL1        0.2221
      2 N         137.9424  144.3814  162.5181 N.ar    1  UNL1       -0.2119
      3 C         137.7526  144.1948  163.9944 C.ar    1  UNL1        0.1050
      4 C         138.8841  143.6864  164.8376 C.ar    1  UNL1        0.0596
      5 C         140.2055  143.3647  164.2047 C.ar    1  UNL1        0.1683
      6 N         140.3953  143.5514  162.7285 N.ar    1  UNL1       -0.1944
      7 N         141.3370  142.8563  165.0480 N.ar    1  UNL1       -0.2092
      8 C         141.2203  141.8944  166.1930 C.ar    1  UNL1        0.1179
      9 C         142.5951  141.6642  166.7470 C.ar    1  UNL1        0.0853
     10 C         143.5615  142.4839  165.9442 C.ar    1  UNL1        0.1364
     11 N         142.7840  143.2206  164.8942 N.ar    1  UNL1       -0.1608
     12 N         142.9426  140.7712  167.9010 N.pl3   1  UNL1       -0.3303
     13 H         143.6911  140.1363  167.8242 H       1  UNL1        0.1469
     14 C         142.1495  140.8454  169.1720 C.3     1  UNL1        0.0884
     15 C         140.9442  139.9716  169.3561 C.3     1  UNL1        0.0530
     16 C         140.1512  140.0458  170.6272 C.3     1  UNL1        0.1440
     17 O         140.5634  140.9937  171.7141 O.3     1  UNL1       -0.3522
     18 C         141.7687  141.8675  171.5301 C.3     1  UNL1        0.1592
     19 C         142.5617  141.7933  170.2590 C.3     1  UNL1        0.0990
     20 N         143.7669  142.6670  170.0749 N.3     1  UNL1       -0.3189
     21 H         143.8991  143.2434  170.9060 H       1  UNL1        0.1189
     22 H         143.6301  143.2683  169.2624 H       1  UNL1        0.1189
     23 N         139.4535  144.2464  160.4091 N.pl3   1  UNL1       -0.2824
     24 H         139.6062  145.1472  160.0424 H       1  UNL1        0.1551
     25 C         139.5644  139.0134  159.3957 C.ar    1  UNL1        0.1517
     26 N         139.4629  138.3028  158.0786 N.ar    1  UNL1       -0.2260
     27 C         139.3149  139.3384  157.0036 C.ar    1  UNL1        0.1248
     28 C         139.1805  139.0705  155.5338 C.3     1  UNL1        0.0722
     29 N         139.3249  140.6889  157.6563 N.ar    1  UNL1       -0.2920
     30 C         139.2136  142.0756  157.0954 C.ar    1  UNL1        0.0824
     31 C         139.2564  143.2614  158.0130 C.ar    1  UNL1        0.0337
     32 C         139.4106  143.0605  159.4915 C.ar    1  UNL1        0.0535
     33 C         139.5220  141.6738  160.0523 C.ar    1  UNL1        0.0339
     34 C         139.4792  140.4880  159.1347 C.ar    1  UNL1        0.0884
     35 C         138.7311  137.6867  163.0421 C.3     1  UNL1        0.1110
     36 N         138.5722  138.3367  161.6996 N.am    1  UNL1       -0.2979
     37 C         139.7234  138.3633  160.7382 C.2     1  UNL1        0.2651
     38 O         141.0333  137.7400  161.1194 O.2     1  UNL1       -0.2684
     39 H         137.7123  138.7458  161.4494 H       1  UNL1        0.1498
@<TRIPOS>BOND
     1    35    36    1
     2    36    37   am
     3    37    38    2
     4    37    25    1
     5    25    26   ar
     6    26    27   ar
     7    27    28    1
     8    27    29   ar
     9    29    30   ar
    10    30    31   ar
    11    31    32   ar
    12    32    23    1
    13    23     1    1
    14     1     2   ar
    15     2     3   ar
    16     3     4   ar
    17     4     5   ar
    18     5     7    1
    19     7     8   ar
    20     8     9   ar
    21     9    12    1
    22    14    12    1
    23    14    15    1
    24    15    16    1
    25    16    17    1
    26    17    18    1
    27    18    19    1
    28    19    20    1
    29     9    10   ar
    30    10    11   ar
    31     5     6   ar
    32    32    33   ar
    33    33    34   ar
    34    34    25   ar
    35    34    29   ar
    36     6     1   ar
    37    11     7   ar
    38    19    14    1
    39    36    39    1
    40    23    24    1
    41    12    13    1
    42    20    21    1
    43    20    22    1
@<TRIPOS>MOLECULE
*****
 39 43 0 0 0
SMALL
GASTEIGER

@<TRIPOS>ATOM
      1 C         138.4098  139.9257  161.9155 C.ar    1  UNL1        0.2221
      2 N         138.1184  138.4555  161.9749 N.ar    1  UNL1       -0.2119
      3 C         138.8276  137.5902  162.9741 C.ar    1  UNL1        0.1050
      4 C         139.8280  138.1951  163.9138 C.ar    1  UNL1        0.0596
      5 C         140.1194  139.6653  163.8544 C.ar    1  UNL1        0.1683
      6 N         139.4103  140.5306  162.8553 N.ar    1  UNL1       -0.1944
      7 N         141.1198  140.2702  164.7942 N.ar    1  UNL1       -0.2092
      8 C         141.2756  139.9391  166.2489 C.ar    1  UNL1        0.1179
      9 C         142.3922  140.7767  166.7980 C.ar    1  UNL1        0.0853
     10 C         142.9266  141.6255  165.6826 C.ar    1  UNL1        0.1364
     11 N         142.1402  141.3125  164.4442 N.ar    1  UNL1       -0.1608
     12 N         142.8875  140.7672  168.2138 N.pl3   1  UNL1       -0.3303
     13 H         143.7764  140.3988  168.4219 H       1  UNL1        0.1469
     14 C         142.0284  141.3190  169.3126 C.3     1  UNL1        0.0884
     15 C         140.9852  142.3514  169.0024 C.3     1  UNL1        0.0530
     16 C         140.1261  142.9033  170.1013 C.3     1  UNL1        0.1440
     17 O         140.3101  142.4228  171.5103 O.3     1  UNL1       -0.3522
     18 C         141.3533  141.3904  171.8205 C.3     1  UNL1        0.1592
     19 C         142.2124  140.8386  170.7216 C.3     1  UNL1        0.0990
     20 N         143.2554  139.8063  171.0318 N.3     1  UNL1       -0.3189
     21 H         143.2420  139.5987  172.0304 H       1  UNL1        0.1189
     22 H         144.1748  140.1628  170.7710 H       1  UNL1        0.1189
     23 N         137.7007  140.7910  160.9163 N.pl3   1  UNL1       -0.2824
     24 H         136.7321  140.6866  160.7743 H       1  UNL1        0.1551
     25 C         141.2035  144.7848  160.4644 C.ar    1  UNL1        0.1517
     26 N         141.6325  145.5319  159.2365 N.ar    1  UNL1       -0.2260
     27 C         140.8890  144.9631  158.0644 C.ar    1  UNL1        0.1248
     28 C         141.0124  145.4138  156.6391 C.3     1  UNL1        0.0722
     29 N         140.0005  143.8645  158.5680 N.ar    1  UNL1       -0.2920
     30 C         139.0396  142.9502  157.8675 C.ar    1  UNL1        0.0824
     31 C         138.2730  141.9258  158.6503 C.ar    1  UNL1        0.0337
     32 C         138.4673  141.8156  160.1335 C.ar    1  UNL1        0.0535
     33 C         139.4282  142.7298  160.8340 C.ar    1  UNL1        0.0339
     34 C         140.1948  143.7543  160.0512 C.ar    1  UNL1        0.0884
     35 C         143.6395  145.0667  163.5848 C.3     1  UNL1        0.1110
     36 N         143.1464  144.8256  162.1888 N.am    1  UNL1       -0.2979
     37 C         141.6965  145.0259  161.8604 C.2     1  UNL1        0.2651
     38 O         140.7398  145.4671  162.9280 O.2     1  UNL1       -0.2684
     39 H         143.7744  144.5360  161.4881 H       1  UNL1        0.1498
@<TRIPOS>BOND
     1    35    36    1
     2    36    37   am
     3    37    38    2
     4    37    25    1
     5    25    26   ar
     6    26    27   ar
     7    27    28    1
     8    27    29   ar
     9    29    30   ar
    10    30    31   ar
    11    31    32   ar
    12    32    23    1
    13    23     1    1
    14     1     2   ar
    15     2     3   ar
    16     3     4   ar
    17     4     5   ar
    18     5     7    1
    19     7     8   ar
    20     8     9   ar
    21     9    12    1
    22    14    12    1
    23    14    15    1
    24    15    16    1
    25    16    17    1
    26    17    18    1
    27    18    19    1
    28    19    20    1
    29     9    10   ar
    30    10    11   ar
    31     5     6   ar
    32    32    33   ar
    33    33    34   ar
    34    34    25   ar
    35    34    29   ar
    36     6     1   ar
    37    11     7   ar
    38    19    14    1
    39    36    39    1
    40    23    24    1
    41    12    13    1
    42    20    21    1
    43    20    22    1
