@<TRIPOS>MOLECULE
*****
 30 31 0 0 0
SMALL
GASTEIGER

@<TRIPOS>ATOM
      1 N         139.1916  144.0351  162.3973 N.3     1  UNL1       -0.2698
      2 C         138.1251  143.1319  161.8525 C.3     1  UNL1        0.0723
      3 C         137.5579  142.0392  162.7095 C.3     1  UNL1        0.0191
      4 C         138.0571  141.8498  164.1112 C.3     1  UNL1        0.0224
      5 C         139.1236  142.7530  164.6560 C.3     1  UNL1        0.0878
      6 C         139.6908  143.8457  163.7990 C.3     1  UNL1        0.0919
      7 N         139.6229  142.5637  166.0577 N.am    1  UNL1       -0.3011
      8 C         140.8789  141.7827  166.3074 C.2     1  UNL1        0.2459
      9 O         141.6357  141.1911  165.1554 O.2     1  UNL1       -0.2701
     10 H         139.1261  142.9519  166.8139 H       1  UNL1        0.1497
     11 C         141.3782  141.5933  167.7092 C.ar    1  UNL1        0.0550
     12 C         142.6842  142.2001  168.1286 C.ar    1  UNL1        0.0160
     13 C         143.1834  142.0107  169.5303 C.ar    1  UNL1        0.0587
     14 CL        144.4896  142.6176  169.9498 Cl      1  UNL1       -0.0822
     15 C         142.3766  141.2145  170.5126 C.ar    1  UNL1        0.0228
     16 C         141.0706  140.6076  170.0933 C.ar    1  UNL1        0.0587
     17 CL        140.2637  139.8113  171.0756 Cl      1  UNL1       -0.0822
     18 C         140.5714  140.7970  168.6915 C.ar    1  UNL1        0.0160
     19 C         139.7588  145.1278  161.5403 C.3     1  UNL1        0.0937
     20 C         141.0183  144.8920  160.7606 C.3     1  UNL1        0.1082
     21 N         144.2752  143.8281  162.7632 N.am    1  UNL1       -0.2921
     22 C         142.9431  143.7480  162.0784 C.2     1  UNL1        0.3007
     23 O         142.2036  142.4441  162.0266 O.2     1  UNL1       -0.2528
     24 N         142.3505  144.9720  161.4454 N.am    1  UNL1       -0.2875
     25 H         144.7606  144.6839  162.7972 H       1  UNL1        0.1508
     26 H         142.8358  145.8279  161.4794 H       1  UNL1        0.1510
     27 C         144.4959  143.1256  164.7526 C.3     1  UNL1        0.0197
     28 C         144.8679  142.6041  163.3962 C.3     1  UNL1        0.0583
     29 C         145.2398  142.0827  162.0399 C.3     1  UNL1        0.0197
     30 C         145.4606  141.3801  164.0292 C.3     1  UNL1        0.0197
@<TRIPOS>BOND
     1    27    28    1
     2    28    29    1
     3    28    30    1
     4    28    21    1
     5    21    22   am
     6    22    23    2
     7    22    24   am
     8    24    20    1
     9    20    19    1
    10    19     1    1
    11     1     2    1
    12     2     3    1
    13     3     4    1
    14     4     5    1
    15     5     7    1
    16     7     8   am
    17     8     9    2
    18     8    11    1
    19    11    12   ar
    20    12    13   ar
    21    13    14    1
    22    13    15   ar
    23    15    16   ar
    24    16    17    1
    25    16    18   ar
    26     5     6    1
    27     6     1    1
    28    18    11   ar
    29    21    25    1
    30    24    26    1
    31     7    10    1
@<TRIPOS>MOLECULE
*****
 30 31 0 0 0
SMALL
GASTEIGER

@<TRIPOS>ATOM
      1 N         141.8573  138.0417  162.6653 N.3     1  UNL1       -0.2698
      2 C         140.4637  137.6447  162.2778 C.3     1  UNL1        0.0723
      3 C         139.3273  137.8703  163.2305 C.3     1  UNL1        0.0191
      4 C         139.5845  138.4929  164.5707 C.3     1  UNL1        0.0224
      5 C         140.9781  138.8899  164.9582 C.3     1  UNL1        0.0878
      6 C         142.1145  138.6643  164.0055 C.3     1  UNL1        0.0919
      7 N         141.2353  139.5126  166.2984 N.am    1  UNL1       -0.3011
      8 C         141.3034  141.0051  166.4314 C.2     1  UNL1        0.2459
      9 O         141.1143  141.8750  165.2242 O.2     1  UNL1       -0.2701
     10 H         141.3595  138.9416  167.0908 H       1  UNL1        0.1497
     11 C         141.5607  141.6277  167.7717 C.ar    1  UNL1        0.0550
     12 C         140.4096  142.0229  168.6484 C.ar    1  UNL1        0.0160
     13 C         140.6668  142.6455  169.9886 C.ar    1  UNL1        0.0587
     14 CL        139.5157  143.0408  170.8654 Cl      1  UNL1       -0.0822
     15 C         142.0752  142.8729  170.4520 C.ar    1  UNL1        0.0228
     16 C         143.2263  142.4777  169.5753 C.ar    1  UNL1        0.0587
     17 CL        144.6347  142.7051  170.0387 Cl      1  UNL1       -0.0822
     18 C         142.9690  141.8551  168.2351 C.ar    1  UNL1        0.0160
     19 C         142.9937  137.8161  161.7126 C.3     1  UNL1        0.0937
     20 C         143.6098  138.9782  160.9914 C.3     1  UNL1        0.1082
     21 N         144.9216  142.1099  163.0461 N.am    1  UNL1       -0.2921
     22 C         143.9991  141.1784  162.3171 C.2     1  UNL1        0.3007
     23 O         142.5435  141.5156  162.1850 O.2     1  UNL1       -0.2528
     24 N         144.5323  139.9096  161.7204 N.am    1  UNL1       -0.2875
     25 H         145.8769  141.8885  163.1328 H       1  UNL1        0.1508
     26 H         145.4876  139.6883  161.8071 H       1  UNL1        0.1510
     27 C         144.4100  142.7476  165.0035 C.3     1  UNL1        0.0197
     28 C         144.3885  143.3785  163.6429 C.3     1  UNL1        0.0583
     29 C         144.3669  144.0095  162.2823 C.3     1  UNL1        0.0197
     30 C         143.8553  144.6473  164.2397 C.3     1  UNL1        0.0197
@<TRIPOS>BOND
     1    27    28    1
     2    28    29    1
     3    28    30    1
     4    28    21    1
     5    21    22   am
     6    22    23    2
     7    22    24   am
     8    24    20    1
     9    20    19    1
    10    19     1    1
    11     1     2    1
    12     2     3    1
    13     3     4    1
    14     4     5    1
    15     5     7    1
    16     7     8   am
    17     8     9    2
    18     8    11    1
    19    11    12   ar
    20    12    13   ar
    21    13    14    1
    22    13    15   ar
    23    15    16   ar
    24    16    17    1
    25    16    18   ar
    26     5     6    1
    27     6     1    1
    28    18    11   ar
    29    21    25    1
    30    24    26    1
    31     7    10    1
@<TRIPOS>MOLECULE
*****
 30 31 0 0 0
SMALL
GASTEIGER

@<TRIPOS>ATOM
      1 N         140.0784  138.2338  162.1719 N.3     1  UNL1       -0.2698
      2 C         141.3581  137.9397  161.4467 C.3     1  UNL1        0.0723
      3 C         142.6714  138.0718  162.1593 C.3     1  UNL1        0.0191
      4 C         142.7050  138.4979  163.5971 C.3     1  UNL1        0.0224
      5 C         141.4253  138.7919  164.3223 C.3     1  UNL1        0.0878
      6 C         140.1120  138.6598  163.6097 C.3     1  UNL1        0.0919
      7 N         141.4589  139.2180  165.7602 N.am    1  UNL1       -0.3011
      8 C         141.8339  140.6259  166.1166 C.2     1  UNL1        0.2459
      9 O         142.1755  141.6077  165.0353 O.2     1  UNL1       -0.2701
     10 H         141.2347  138.5736  166.4699 H       1  UNL1        0.1497
     11 C         141.8675  141.0520  167.5545 C.ar    1  UNL1        0.0550
     12 C         142.5973  140.2195  168.5666 C.ar    1  UNL1        0.0160
     13 C         142.6308  140.6456  170.0043 C.ar    1  UNL1        0.0587
     14 CL        143.3607  139.8132  171.0165 Cl      1  UNL1       -0.0822
     15 C         141.9346  141.9042  170.4300 C.ar    1  UNL1        0.0228
     16 C         141.2048  142.7367  169.4180 C.ar    1  UNL1        0.0587
     17 CL        140.5085  143.9952  169.8436 Cl      1  UNL1       -0.0822
     18 C         141.1712  142.3105  167.9802 C.ar    1  UNL1        0.0160
     19 C         138.7651  138.1017  161.4593 C.3     1  UNL1        0.0937
     20 C         138.0368  139.3282  160.9954 C.3     1  UNL1        0.1082
     21 N         137.4814  142.3194  163.5439 N.am    1  UNL1       -0.2921
     22 C         138.1349  141.4120  162.5440 C.2     1  UNL1        0.3007
     23 O         139.5399  141.6811  162.0930 O.2     1  UNL1       -0.2528
     24 N         137.3833  140.2356  161.9952 N.am    1  UNL1       -0.2875
     25 H         136.5592  142.1427  163.8399 H       1  UNL1        0.1508
     26 H         136.4611  140.0589  162.2913 H       1  UNL1        0.1510
     27 C         138.8152  142.6235  165.1650 C.3     1  UNL1        0.0197
     28 C         138.2328  143.4958  164.0927 C.3     1  UNL1        0.0583
     29 C         137.6505  144.3680  163.0203 C.3     1  UNL1        0.0197
     30 C         138.9844  144.6723  164.6415 C.3     1  UNL1        0.0197
@<TRIPOS>BOND
     1    27    28    1
     2    28    29    1
     3    28    30    1
     4    28    21    1
     5    21    22   am
     6    22    23    2
     7    22    24   am
     8    24    20    1
     9    20    19    1
    10    19     1    1
    11     1     2    1
    12     2     3    1
    13     3     4    1
    14     4     5    1
    15     5     7    1
    16     7     8   am
    17     8     9    2
    18     8    11    1
    19    11    12   ar
    20    12    13   ar
    21    13    14    1
    22    13    15   ar
    23    15    16   ar
    24    16    17    1
    25    16    18   ar
    26     5     6    1
    27     6     1    1
    28    18    11   ar
    29    21    25    1
    30    24    26    1
    31     7    10    1
@<TRIPOS>MOLECULE
*****
 30 31 0 0 0
SMALL
GASTEIGER

@<TRIPOS>ATOM
      1 N         140.0988  138.2673  162.0630 N.3     1  UNL1       -0.2698
      2 C         141.3698  137.9693  161.3244 C.3     1  UNL1        0.0723
      3 C         142.6897  138.0772  162.0288 C.3     1  UNL1        0.0191
      4 C         142.7386  138.4832  163.4719 C.3     1  UNL1        0.0224
      5 C         141.4676  138.7813  164.2106 C.3     1  UNL1        0.0878
      6 C         140.1477  138.6733  163.5062 C.3     1  UNL1        0.0919
      7 N         141.5165  139.1873  165.6539 N.am    1  UNL1       -0.3011
      8 C         141.7602  140.6208  166.0218 C.2     1  UNL1        0.2459
      9 O         141.9551  141.6484  164.9466 O.2     1  UNL1       -0.2701
     10 H         141.3886  138.5128  166.3596 H       1  UNL1        0.1497
     11 C         141.8091  141.0269  167.4651 C.ar    1  UNL1        0.0550
     12 C         141.1403  142.2933  167.9110 C.ar    1  UNL1        0.0160
     13 C         141.1892  142.6993  169.3541 C.ar    1  UNL1        0.0587
     14 CL        140.5204  143.9658  169.8001 Cl      1  UNL1       -0.0822
     15 C         141.9069  141.8388  170.3514 C.ar    1  UNL1        0.0228
     16 C         142.5756  140.5724  169.9055 C.ar    1  UNL1        0.0587
     17 CL        143.2933  139.7119  170.9028 Cl      1  UNL1       -0.0822
     18 C         142.5268  140.1664  168.4624 C.ar    1  UNL1        0.0160
     19 C         138.7789  138.1594  161.3586 C.3     1  UNL1        0.0937
     20 C         138.0793  139.3979  160.8827 C.3     1  UNL1        0.1082
     21 N         137.4455  142.3516  163.4564 N.am    1  UNL1       -0.2921
     22 C         138.1327  141.4530  162.4714 C.2     1  UNL1        0.3007
     23 O         139.5603  141.7107  162.0902 O.2     1  UNL1       -0.2528
     24 N         137.3921  140.2966  161.8677 N.am    1  UNL1       -0.2875
     25 H         136.5084  142.1825  163.7066 H       1  UNL1        0.1508
     26 H         136.4551  140.1274  162.1179 H       1  UNL1        0.1510
     27 C         137.6848  144.4011  162.9642 C.3     1  UNL1        0.0197
     28 C         138.1859  143.5080  164.0602 C.3     1  UNL1        0.0583
     29 C         138.6870  142.6149  165.1561 C.3     1  UNL1        0.0197
     30 C         138.9264  144.6643  164.6640 C.3     1  UNL1        0.0197
@<TRIPOS>BOND
     1    27    28    1
     2    28    29    1
     3    28    30    1
     4    28    21    1
     5    21    22   am
     6    22    23    2
     7    22    24   am
     8    24    20    1
     9    20    19    1
    10    19     1    1
    11     1     2    1
    12     2     3    1
    13     3     4    1
    14     4     5    1
    15     5     7    1
    16     7     8   am
    17     8     9    2
    18     8    11    1
    19    11    12   ar
    20    12    13   ar
    21    13    14    1
    22    13    15   ar
    23    15    16   ar
    24    16    17    1
    25    16    18   ar
    26     5     6    1
    27     6     1    1
    28    18    11   ar
    29    21    25    1
    30    24    26    1
    31     7    10    1
@<TRIPOS>MOLECULE
*****
 30 31 0 0 0
SMALL
GASTEIGER

@<TRIPOS>ATOM
      1 N         137.8946  140.1186  162.8443 N.3     1  UNL1       -0.2698
      2 C         137.3542  141.4635  162.4581 C.3     1  UNL1        0.0723
      3 C         137.5143  142.6309  163.3863 C.3     1  UNL1        0.0191
      4 C         138.2146  142.4533  164.7008 C.3     1  UNL1        0.0224
      5 C         138.7550  141.1084  165.0871 C.3     1  UNL1        0.0878
      6 C         138.5949  139.9411  164.1588 C.3     1  UNL1        0.0919
      7 N         139.4554  140.9309  166.4016 N.am    1  UNL1       -0.3011
      8 C         140.9036  141.2980  166.5354 C.2     1  UNL1        0.2459
      9 O         141.6514  141.8426  165.3547 O.2     1  UNL1       -0.2701
     10 H         138.9646  140.5734  167.1765 H       1  UNL1        0.1497
     11 C         141.6040  141.1204  167.8500 C.ar    1  UNL1        0.0550
     12 C         142.0400  142.3214  168.6357 C.ar    1  UNL1        0.0160
     13 C         142.7404  142.1437  169.9502 C.ar    1  UNL1        0.0587
     14 CL        143.1765  143.3448  170.7360 Cl      1  UNL1       -0.0822
     15 C         143.0047  140.7651  170.4789 C.ar    1  UNL1        0.0228
     16 C         142.5687  139.5641  169.6932 C.ar    1  UNL1        0.0587
     17 CL        142.8330  138.1855  170.2219 Cl      1  UNL1       -0.0822
     18 C         141.8683  139.7418  168.3787 C.ar    1  UNL1        0.0160
     19 C         137.7345  138.9512  161.9161 C.3     1  UNL1        0.0937
     20 C         138.8873  138.5052  161.0663 C.3     1  UNL1        0.1082
     21 N         142.4031  137.9436  162.8194 N.am    1  UNL1       -0.2921
     22 C         141.2272  138.6286  162.1886 C.2     1  UNL1        0.3007
     23 O         141.2153  140.1221  162.0493 O.2     1  UNL1       -0.2528
     24 N         140.0632  137.8202  161.6971 N.am    1  UNL1       -0.2875
     25 H         142.4110  136.9633  162.9108 H       1  UNL1        0.1508
     26 H         140.0710  136.8399  161.7885 H       1  UNL1        0.1510
     27 C         143.0067  138.7132  164.7017 C.3     1  UNL1        0.0197
     28 C         143.5671  138.7519  163.3109 C.3     1  UNL1        0.0583
     29 C         144.1275  138.7906  161.9201 C.3     1  UNL1        0.0197
     30 C         144.7312  139.5604  163.8024 C.3     1  UNL1        0.0197
@<TRIPOS>BOND
     1    27    28    1
     2    28    29    1
     3    28    30    1
     4    28    21    1
     5    21    22   am
     6    22    23    2
     7    22    24   am
     8    24    20    1
     9    20    19    1
    10    19     1    1
    11     1     2    1
    12     2     3    1
    13     3     4    1
    14     4     5    1
    15     5     7    1
    16     7     8   am
    17     8     9    2
    18     8    11    1
    19    11    12   ar
    20    12    13   ar
    21    13    14    1
    22    13    15   ar
    23    15    16   ar
    24    16    17    1
    25    16    18   ar
    26     5     6    1
    27     6     1    1
    28    18    11   ar
    29    21    25    1
    30    24    26    1
    31     7    10    1
@<TRIPOS>MOLECULE
*****
 30 31 0 0 0
SMALL
GASTEIGER

@<TRIPOS>ATOM
      1 N         139.1951  142.7590  159.4656 N.3     1  UNL1       -0.2698
      2 C         138.7032  141.8012  158.4212 C.3     1  UNL1        0.0723
      3 C         138.0325  140.5237  158.8314 C.3     1  UNL1        0.0191
      4 C         137.8536  140.2040  160.2860 C.3     1  UNL1        0.0224
      5 C         138.3455  141.1618  161.3303 C.3     1  UNL1        0.0878
      6 C         139.0162  142.4393  160.9201 C.3     1  UNL1        0.0919
      7 N         138.1666  140.8422  162.7850 N.am    1  UNL1       -0.3011
      8 C         139.3622  140.5410  163.6392 C.2     1  UNL1        0.2459
      9 O         140.7367  140.5596  163.0389 O.2     1  UNL1       -0.2701
     10 H         137.2645  140.8300  163.1790 H       1  UNL1        0.1497
     11 C         139.1834  140.2214  165.0939 C.ar    1  UNL1        0.0550
     12 C         138.1993  139.1707  165.5154 C.ar    1  UNL1        0.0160
     13 C         138.0205  138.8511  166.9700 C.ar    1  UNL1        0.0587
     14 CL        137.0364  137.8004  167.3916 Cl      1  UNL1       -0.0822
     15 C         138.8257  139.5822  168.0030 C.ar    1  UNL1        0.0228
     16 C         139.8098  140.6328  167.5815 C.ar    1  UNL1        0.0587
     17 CL        140.6150  141.3638  168.6145 Cl      1  UNL1       -0.0822
     18 C         139.9886  140.9524  166.1269 C.ar    1  UNL1        0.0160
     19 C         139.8658  144.0364  159.0554 C.3     1  UNL1        0.0937
     20 C         140.2563  145.0456  160.0941 C.3     1  UNL1        0.1082
     21 N         143.5920  144.6814  162.2134 N.am    1  UNL1       -0.2921
     22 C         142.1572  144.5524  161.7952 C.2     1  UNL1        0.3007
     23 O         141.1887  143.8011  162.6597 O.2     1  UNL1       -0.2528
     24 N         141.6911  145.1746  160.5124 N.am    1  UNL1       -0.2875
     25 H         144.2276  145.1745  161.6459 H       1  UNL1        0.1508
     26 H         142.3268  145.6677  159.9449 H       1  UNL1        0.1510
     27 C         144.4891  142.8343  162.7454 C.3     1  UNL1        0.0197
     28 C         144.0581  144.0592  163.4962 C.3     1  UNL1        0.0583
     29 C         143.6272  145.2842  164.2469 C.3     1  UNL1        0.0197
     30 C         144.5243  143.4370  164.7790 C.3     1  UNL1        0.0197
@<TRIPOS>BOND
     1    27    28    1
     2    28    29    1
     3    28    30    1
     4    28    21    1
     5    21    22   am
     6    22    23    2
     7    22    24   am
     8    24    20    1
     9    20    19    1
    10    19     1    1
    11     1     2    1
    12     2     3    1
    13     3     4    1
    14     4     5    1
    15     5     7    1
    16     7     8   am
    17     8     9    2
    18     8    11    1
    19    11    12   ar
    20    12    13   ar
    21    13    14    1
    22    13    15   ar
    23    15    16   ar
    24    16    17    1
    25    16    18   ar
    26     5     6    1
    27     6     1    1
    28    18    11   ar
    29    21    25    1
    30    24    26    1
    31     7    10    1
@<TRIPOS>MOLECULE
*****
 30 31 0 0 0
SMALL
GASTEIGER

@<TRIPOS>ATOM
      1 N         144.0316  140.7994  160.7949 N.3     1  UNL1       -0.2698
      2 C         143.9376  139.4236  160.2049 C.3     1  UNL1        0.0723
      3 C         143.6616  138.2449  161.0906 C.3     1  UNL1        0.0191
      4 C         143.4796  138.4421  162.5664 C.3     1  UNL1        0.0224
      5 C         143.5735  139.8179  163.1564 C.3     1  UNL1        0.0878
      6 C         143.8496  140.9966  162.2707 C.3     1  UNL1        0.0919
      7 N         143.3915  140.0151  164.6323 N.am    1  UNL1       -0.3011
      8 C         142.0703  140.4795  165.1696 C.2     1  UNL1        0.2459
      9 O         140.9311  140.7466  164.2311 O.2     1  UNL1       -0.2701
     10 H         144.1392  139.8398  165.2482 H       1  UNL1        0.1497
     11 C         141.8883  140.6767  166.6454 C.ar    1  UNL1        0.0550
     12 C         142.3355  139.6140  167.6049 C.ar    1  UNL1        0.0160
     13 C         142.1534  139.8113  169.0806 C.ar    1  UNL1        0.0587
     14 CL        142.6006  138.7485  170.0402 Cl      1  UNL1       -0.0822
     15 C         141.5242  141.0712  169.5969 C.ar    1  UNL1        0.0228
     16 C         141.0771  142.1340  168.6375 C.ar    1  UNL1        0.0587
     17 CL        140.4479  143.3939  169.1537 Cl      1  UNL1       -0.0822
     18 C         141.2591  141.9367  167.1617 C.ar    1  UNL1        0.0160
     19 C         144.3076  141.9781  159.9091 C.3     1  UNL1        0.0937
     20 C         143.1966  142.9165  159.5416 C.3     1  UNL1        0.1082
     21 N         141.4049  145.1056  162.3251 N.am    1  UNL1       -0.2921
     22 C         141.7396  143.9514  161.4274 C.2     1  UNL1        0.3007
     23 O         140.9520  142.6781  161.5177 O.2     1  UNL1       -0.2528
     24 N         142.8619  144.0707  160.4393 N.am    1  UNL1       -0.2875
     25 H         141.9218  145.9414  162.2658 H       1  UNL1        0.1508
     26 H         143.3789  144.9065  160.3801 H       1  UNL1        0.1510
     27 C         141.2255  144.3827  164.3113 C.3     1  UNL1        0.0197
     28 C         140.2826  144.9864  163.3131 C.3     1  UNL1        0.0583
     29 C         139.3397  145.5901  162.3149 C.3     1  UNL1        0.0197
     30 C         139.1602  144.8672  164.3011 C.3     1  UNL1        0.0197
@<TRIPOS>BOND
     1    27    28    1
     2    28    29    1
     3    28    30    1
     4    28    21    1
     5    21    22   am
     6    22    23    2
     7    22    24   am
     8    24    20    1
     9    20    19    1
    10    19     1    1
    11     1     2    1
    12     2     3    1
    13     3     4    1
    14     4     5    1
    15     5     7    1
    16     7     8   am
    17     8     9    2
    18     8    11    1
    19    11    12   ar
    20    12    13   ar
    21    13    14    1
    22    13    15   ar
    23    15    16   ar
    24    16    17    1
    25    16    18   ar
    26     5     6    1
    27     6     1    1
    28    18    11   ar
    29    21    25    1
    30    24    26    1
    31     7    10    1
@<TRIPOS>MOLECULE
*****
 30 31 0 0 0
SMALL
GASTEIGER

@<TRIPOS>ATOM
      1 N         138.2234  139.5533  162.7634 N.3     1  UNL1       -0.2698
      2 C         138.6069  138.1264  162.5050 C.3     1  UNL1        0.0723
      3 C         139.3527  137.3493  163.5490 C.3     1  UNL1        0.0191
      4 C         139.7150  137.9991  164.8515 C.3     1  UNL1        0.0224
      5 C         139.3315  139.4260  165.1099 C.3     1  UNL1        0.0878
      6 C         138.5857  140.2031  164.0659 C.3     1  UNL1        0.0919
      7 N         139.6937  140.0760  166.4124 N.am    1  UNL1       -0.3011
      8 C         140.9120  140.9464  166.5030 C.2     1  UNL1        0.2459
      9 O         141.7680  141.1670  165.2911 O.2     1  UNL1       -0.2701
     10 H         139.1319  139.9312  167.2078 H       1  UNL1        0.1497
     11 C         141.2742  141.5963  167.8055 C.ar    1  UNL1        0.0550
     12 C         140.1948  142.0660  168.7351 C.ar    1  UNL1        0.0160
     13 C         140.5571  142.7159  170.0375 C.ar    1  UNL1        0.0587
     14 CL        139.4777  143.1857  170.9672 Cl      1  UNL1       -0.0822
     15 C         141.9988  142.8960  170.4103 C.ar    1  UNL1        0.0228
     16 C         143.0783  142.4263  169.4808 C.ar    1  UNL1        0.0587
     17 CL        144.5200  142.6064  169.8536 Cl      1  UNL1       -0.0822
     18 C         142.7159  141.7764  168.1783 C.ar    1  UNL1        0.0160
     19 C         137.4776  140.3303  161.7194 C.3     1  UNL1        0.0937
     20 C         138.2243  141.2216  160.7718 C.3     1  UNL1        0.1082
     21 N         140.3072  144.2389  162.2910 N.am    1  UNL1       -0.2921
     22 C         139.9237  142.8510  161.8706 C.2     1  UNL1        0.3007
     23 O         140.8560  141.7047  162.1287 O.2     1  UNL1       -0.2528
     24 N         138.6078  142.6095  161.1922 N.am    1  UNL1       -0.2875
     25 H         139.6952  144.9913  162.1216 H       1  UNL1        0.1508
     26 H         137.9959  143.3619  161.0228 H       1  UNL1        0.1510
     27 C         142.3052  144.5148  161.6340 C.3     1  UNL1        0.0197
     28 C         141.6230  144.4804  162.9694 C.3     1  UNL1        0.0583
     29 C         140.9407  144.4461  164.3048 C.3     1  UNL1        0.0197
     30 C         142.9388  144.7220  163.6479 C.3     1  UNL1        0.0197
@<TRIPOS>BOND
     1    27    28    1
     2    28    29    1
     3    28    30    1
     4    28    21    1
     5    21    22   am
     6    22    23    2
     7    22    24   am
     8    24    20    1
     9    20    19    1
    10    19     1    1
    11     1     2    1
    12     2     3    1
    13     3     4    1
    14     4     5    1
    15     5     7    1
    16     7     8   am
    17     8     9    2
    18     8    11    1
    19    11    12   ar
    20    12    13   ar
    21    13    14    1
    22    13    15   ar
    23    15    16   ar
    24    16    17    1
    25    16    18   ar
    26     5     6    1
    27     6     1    1
    28    18    11   ar
    29    21    25    1
    30    24    26    1
    31     7    10    1
@<TRIPOS>MOLECULE
*****
 30 31 0 0 0
SMALL
GASTEIGER

@<TRIPOS>ATOM
      1 N         141.1710  144.1173  162.3140 N.3     1  UNL1       -0.2698
      2 C         142.5897  144.3422  161.8820 C.3     1  UNL1        0.0723
      3 C         143.7163  144.0642  162.8325 C.3     1  UNL1        0.0191
      4 C         143.4242  143.5614  164.2151 C.3     1  UNL1        0.0224
      5 C         142.0055  143.3365  164.6472 C.3     1  UNL1        0.0878
      6 C         140.8789  143.6145  163.6967 C.3     1  UNL1        0.0919
      7 N         141.7133  142.8335  166.0299 N.am    1  UNL1       -0.3011
      8 C         141.7063  141.3592  166.3058 C.2     1  UNL1        0.2459
      9 O         141.9914  140.3877  165.1991 O.2     1  UNL1       -0.2701
     10 H         141.5262  143.4712  166.7563 H       1  UNL1        0.1497
     11 C         141.4141  140.8563  167.6885 C.ar    1  UNL1        0.0550
     12 C         142.5402  140.4497  168.5922 C.ar    1  UNL1        0.0160
     13 C         142.2480  139.9468  169.9748 C.ar    1  UNL1        0.0587
     14 CL        143.3740  139.5401  170.8786 Cl      1  UNL1       -0.0822
     15 C         140.8297  139.8505  170.4538 C.ar    1  UNL1        0.0228
     16 C         139.7037  140.2571  169.5501 C.ar    1  UNL1        0.0587
     17 CL        138.2855  140.1608  170.0290 Cl      1  UNL1       -0.0822
     18 C         139.9959  140.7600  168.1675 C.ar    1  UNL1        0.0160
     19 C         140.0444  144.3953  161.3635 C.3     1  UNL1        0.0937
     20 C         139.4057  143.2683  160.6073 C.3     1  UNL1        0.1082
     21 N         137.9426  140.1830  162.6298 N.am    1  UNL1       -0.2921
     22 C         138.9158  141.0925  161.9400 C.2     1  UNL1        0.3007
     23 O         140.3719  140.7358  161.8931 O.2     1  UNL1       -0.2528
     24 N         138.4326  142.3588  161.2971 N.am    1  UNL1       -0.2875
     25 H         136.9869  140.4171  162.6606 H       1  UNL1        0.1508
     26 H         137.4769  142.5929  161.3279 H       1  UNL1        0.1510
     27 C         138.6249  139.6496  164.5663 C.3     1  UNL1        0.0197
     28 C         138.4257  138.9168  163.2727 C.3     1  UNL1        0.0583
     29 C         138.2265  138.1841  161.9791 C.3     1  UNL1        0.0197
     30 C         138.9088  137.6505  163.9156 C.3     1  UNL1        0.0197
@<TRIPOS>BOND
     1    27    28    1
     2    28    29    1
     3    28    30    1
     4    28    21    1
     5    21    22   am
     6    22    23    2
     7    22    24   am
     8    24    20    1
     9    20    19    1
    10    19     1    1
    11     1     2    1
    12     2     3    1
    13     3     4    1
    14     4     5    1
    15     5     7    1
    16     7     8   am
    17     8     9    2
    18     8    11    1
    19    11    12   ar
    20    12    13   ar
    21    13    14    1
    22    13    15   ar
    23    15    16   ar
    24    16    17    1
    25    16    18   ar
    26     5     6    1
    27     6     1    1
    28    18    11   ar
    29    21    25    1
    30    24    26    1
    31     7    10    1
