@<TRIPOS>MOLECULE
*****
 24 25 0 0 0
SMALL
GASTEIGER

@<TRIPOS>ATOM
      1 C         139.0814  139.7518  165.2046 C.ar    1  UNL1        0.1349
      2 N         138.1727  138.6111  165.5553 N.ar    1  UNL1       -0.1992
      3 C         137.8784  138.3013  166.9931 C.ar    1  UNL1        0.2148
      4 N         136.9697  137.1605  167.3437 N.pl3   1  UNL1       -0.3274
      5 N         138.4929  139.1322  168.0803 N.ar    1  UNL1       -0.2138
      6 C         139.4017  140.2729  167.7297 C.ar    1  UNL1        0.0890
      7 C         140.0161  141.1038  168.8169 C.ar    1  UNL1        0.0194
      8 C         140.9248  142.2445  168.4663 C.ar    1  UNL1        0.0039
      9 C         141.2191  142.5543  167.0285 C.ar    1  UNL1        0.0298
     10 C         140.6047  141.7235  165.9412 C.ar    1  UNL1        0.1442
     11 F         140.8989  142.0333  164.5034 F       1  UNL1       -0.2040
     12 C         139.6959  140.5828  166.2919 C.ar    1  UNL1        0.0766
     13 H         136.5664  136.6152  166.6301 H       1  UNL1        0.1452
     14 H         136.7765  136.9572  168.2874 H       1  UNL1        0.1452
     15 N         139.3757  140.0617  163.7668 N.pl3   1  UNL1       -0.3195
     16 H         140.3030  140.0339  163.4371 H       1  UNL1        0.1481
     17 C         138.2573  140.4138  162.8314 C.3     1  UNL1        0.0729
     18 C         137.3496  141.5654  163.1475 C.3     1  UNL1        0.0196
     19 C         137.9176  143.7283  164.4700 C.3     1  UNL1        0.0001
     20 C         137.8943  142.9626  163.1804 C.3     1  UNL1        0.0017
     21 C         138.0466  139.6144  161.5797 C.3     1  UNL1        0.0512
     22 C         138.4438  138.1686  161.5373 C.3     1  UNL1        0.1389
     23 O         138.4839  137.3645  162.8029 O.3     1  UNL1       -0.3819
     24 H         139.1821  137.7078  163.3822 H       1  UNL1        0.2104
@<TRIPOS>BOND
     1    19    20    1
     2    20    18    1
     3    17    18    1
     4    17    21    1
     5    21    22    1
     6    22    23    1
     7    17    15    1
     8    15     1    1
     9     1     2   ar
    10     2     3   ar
    11     3     4    1
    12     3     5   ar
    13     5     6   ar
    14     6     7   ar
    15     7     8   ar
    16     8     9   ar
    17     9    10   ar
    18    10    11    1
    19    10    12   ar
    20    12     1   ar
    21    12     6   ar
    22    23    24    1
    23    15    16    1
    24     4    13    1
    25     4    14    1
@<TRIPOS>MOLECULE
*****
 24 25 0 0 0
SMALL
GASTEIGER

@<TRIPOS>ATOM
      1 C         139.0694  140.3197  164.0699 C.ar    1  UNL1        0.1349
      2 N         138.4427  139.6254  162.8972 N.ar    1  UNL1       -0.1992
      3 C         137.6367  140.4096  161.9044 C.ar    1  UNL1        0.2148
      4 N         137.0099  139.7152  160.7317 N.pl3   1  UNL1       -0.3274
      5 N         137.4575  141.8879  162.0843 N.ar    1  UNL1       -0.2138
      6 C         138.0843  142.5822  163.2570 C.ar    1  UNL1        0.0890
      7 C         137.9051  144.0605  163.4369 C.ar    1  UNL1        0.0194
      8 C         138.5319  144.7547  164.6095 C.ar    1  UNL1        0.0039
      9 C         139.3378  143.9706  165.6023 C.ar    1  UNL1        0.0298
     10 C         139.5170  142.4923  165.4225 C.ar    1  UNL1        0.1442
     11 F         140.3229  141.7082  166.4153 F       1  UNL1       -0.2040
     12 C         138.8902  141.7981  164.2498 C.ar    1  UNL1        0.0766
     13 H         137.1276  138.7450  160.6137 H       1  UNL1        0.1452
     14 H         136.4810  140.2299  160.0801 H       1  UNL1        0.1452
     15 N         139.8753  139.5356  165.0627 N.pl3   1  UNL1       -0.3195
     16 H         140.4993  139.9997  165.6664 H       1  UNL1        0.1481
     17 C         139.7306  138.0444  165.1357 C.3     1  UNL1        0.0729
     18 C         140.8171  137.1584  164.6023 C.3     1  UNL1        0.0196
     19 C         142.4379  138.1205  162.8141 C.3     1  UNL1        0.0001
     20 C         141.2482  137.2792  163.1706 C.3     1  UNL1        0.0017
     21 C         138.4992  137.4391  165.7420 C.3     1  UNL1        0.0512
     22 C         137.7480  138.1781  166.8094 C.3     1  UNL1        0.1389
     23 O         136.6597  137.4868  167.5760 O.3     1  UNL1       -0.3819
     24 H         135.9261  137.2763  166.9773 H       1  UNL1        0.2104
@<TRIPOS>BOND
     1    19    20    1
     2    20    18    1
     3    17    18    1
     4    17    21    1
     5    21    22    1
     6    22    23    1
     7    17    15    1
     8    15     1    1
     9     1     2   ar
    10     2     3   ar
    11     3     4    1
    12     3     5   ar
    13     5     6   ar
    14     6     7   ar
    15     7     8   ar
    16     8     9   ar
    17     9    10   ar
    18    10    11    1
    19    10    12   ar
    20    12     1   ar
    21    12     6   ar
    22    23    24    1
    23    15    16    1
    24     4    13    1
    25     4    14    1
@<TRIPOS>MOLECULE
*****
 24 25 0 0 0
SMALL
GASTEIGER

@<TRIPOS>ATOM
      1 C         139.2386  139.5264  165.3670 C.ar    1  UNL1        0.1349
      2 N         138.1866  138.5459  165.7934 N.ar    1  UNL1       -0.1992
      3 C         137.7945  138.4474  167.2379 C.ar    1  UNL1        0.2148
      4 N         136.7425  137.4668  167.6643 N.pl3   1  UNL1       -0.3274
      5 N         138.4544  139.3294  168.2560 N.ar    1  UNL1       -0.2138
      6 C         139.5064  140.3100  167.8296 C.ar    1  UNL1        0.0890
      7 C         140.1663  141.1920  168.8477 C.ar    1  UNL1        0.0194
      8 C         141.2183  142.1726  168.4213 C.ar    1  UNL1        0.0039
      9 C         141.6104  142.2711  166.9768 C.ar    1  UNL1        0.0298
     10 C         140.9505  141.3891  165.9587 C.ar    1  UNL1        0.1442
     11 F         141.3425  141.4876  164.5142 F       1  UNL1       -0.2040
     12 C         139.8985  140.4085  166.3851 C.ar    1  UNL1        0.0766
     13 H         136.3094  136.8879  166.9961 H       1  UNL1        0.1452
     14 H         136.4852  137.4021  168.6124 H       1  UNL1        0.1452
     15 N         139.6306  139.6249  163.9225 N.pl3   1  UNL1       -0.3195
     16 H         139.5691  140.4884  163.4535 H       1  UNL1        0.1481
     17 C         140.1165  138.4080  163.1926 C.3     1  UNL1        0.0729
     18 C         141.2916  137.6377  163.7178 C.3     1  UNL1        0.0196
     19 C         142.9187  138.3132  165.6273 C.3     1  UNL1        0.0001
     20 C         142.5182  138.3653  164.1827 C.3     1  UNL1        0.0017
     21 C         139.4273  137.9612  161.9373 C.3     1  UNL1        0.0512
     22 C         137.9555  138.1945  161.7661 C.3     1  UNL1        0.1389
     23 O         137.3790  139.5577  162.0095 O.3     1  UNL1       -0.3819
     24 H         137.4713  139.7850  162.9480 H       1  UNL1        0.2104
@<TRIPOS>BOND
     1    19    20    1
     2    20    18    1
     3    17    18    1
     4    17    21    1
     5    21    22    1
     6    22    23    1
     7    17    15    1
     8    15     1    1
     9     1     2   ar
    10     2     3   ar
    11     3     4    1
    12     3     5   ar
    13     5     6   ar
    14     6     7   ar
    15     7     8   ar
    16     8     9   ar
    17     9    10   ar
    18    10    11    1
    19    10    12   ar
    20    12     1   ar
    21    12     6   ar
    22    23    24    1
    23    15    16    1
    24     4    13    1
    25     4    14    1
@<TRIPOS>MOLECULE
*****
 24 25 0 0 0
SMALL
GASTEIGER

@<TRIPOS>ATOM
      1 C         142.4473  141.8829  167.4059 C.ar    1  UNL1        0.1349
      2 N         143.6359  142.4895  168.0908 N.ar    1  UNL1       -0.1992
      3 C         143.7246  142.4797  169.5882 C.ar    1  UNL1        0.2148
      4 N         144.9133  143.0863  170.2731 N.pl3   1  UNL1       -0.3274
      5 N         142.6246  141.8632  170.4006 N.ar    1  UNL1       -0.2138
      6 C         141.4360  141.2565  169.7156 C.ar    1  UNL1        0.0890
      7 C         140.3360  140.6400  170.5280 C.ar    1  UNL1        0.0194
      8 C         139.1474  140.0334  169.8431 C.ar    1  UNL1        0.0039
      9 C         139.0587  140.0433  168.3457 C.ar    1  UNL1        0.0298
     10 C         140.1587  140.6598  167.5333 C.ar    1  UNL1        0.1442
     11 F         140.0700  140.6697  166.0360 F       1  UNL1       -0.2040
     12 C         141.3473  141.2664  168.2183 C.ar    1  UNL1        0.0766
     13 H         145.6352  143.4909  169.7399 H       1  UNL1        0.1452
     14 H         144.9715  143.0798  171.2558 H       1  UNL1        0.1452
     15 N         142.3586  141.8928  165.9085 N.pl3   1  UNL1       -0.3195
     16 H         141.5721  142.2845  165.4646 H       1  UNL1        0.1481
     17 C         143.4684  141.3059  165.0876 C.3     1  UNL1        0.0729
     18 C         143.4484  139.8488  164.7319 C.3     1  UNL1        0.0196
     19 C         143.7838  138.0571  166.5833 C.3     1  UNL1        0.0001
     20 C         142.8740  138.8501  165.6926 C.3     1  UNL1        0.0017
     21 C         144.5982  142.1761  164.6223 C.3     1  UNL1        0.0512
     22 C         145.7372  141.5778  163.8512 C.3     1  UNL1        0.1389
     23 O         146.0213  142.0405  162.4530 O.3     1  UNL1       -0.3819
     24 H         145.2843  141.7909  161.8738 H       1  UNL1        0.2104
@<TRIPOS>BOND
     1    19    20    1
     2    20    18    1
     3    17    18    1
     4    17    21    1
     5    21    22    1
     6    22    23    1
     7    17    15    1
     8    15     1    1
     9     1     2   ar
    10     2     3   ar
    11     3     4    1
    12     3     5   ar
    13     5     6   ar
    14     6     7   ar
    15     7     8   ar
    16     8     9   ar
    17     9    10   ar
    18    10    11    1
    19    10    12   ar
    20    12     1   ar
    21    12     6   ar
    22    23    24    1
    23    15    16    1
    24     4    13    1
    25     4    14    1
@<TRIPOS>MOLECULE
*****
 24 25 0 0 0
SMALL
GASTEIGER

@<TRIPOS>ATOM
      1 C         138.9468  140.2167  164.4549 C.ar    1  UNL1        0.1349
      2 N         138.3174  139.4807  163.3094 N.ar    1  UNL1       -0.1992
      3 C         137.5902  140.2395  162.2392 C.ar    1  UNL1        0.2148
      4 N         136.9608  139.5034  161.0938 N.pl3   1  UNL1       -0.3274
      5 N         137.4923  141.7344  162.3145 N.ar    1  UNL1       -0.2138
      6 C         138.1217  142.4705  163.4600 C.ar    1  UNL1        0.0890
      7 C         138.0238  143.9654  163.5353 C.ar    1  UNL1        0.0194
      8 C         138.6532  144.7014  164.6807 C.ar    1  UNL1        0.0039
      9 C         139.3804  143.9426  165.7509 C.ar    1  UNL1        0.0298
     10 C         139.4783  142.4477  165.6756 C.ar    1  UNL1        0.1442
     11 F         140.2056  141.6889  166.7458 F       1  UNL1       -0.2040
     12 C         138.8489  141.7117  164.5302 C.ar    1  UNL1        0.0766
     13 H         137.0250  138.5222  161.0444 H       1  UNL1        0.1452
     14 H         136.4834  140.0014  160.3914 H       1  UNL1        0.1452
     15 N         139.6741  139.4579  165.5250 N.pl3   1  UNL1       -0.3195
     16 H         139.3114  139.4274  166.4398 H       1  UNL1        0.1481
     17 C         140.9539  138.7456  165.2015 C.3     1  UNL1        0.0729
     18 C         142.2710  139.4144  165.4619 C.3     1  UNL1        0.0196
     19 C         142.5508  139.4542  168.0445 C.3     1  UNL1        0.0001
     20 C         143.0602  139.0645  166.6886 C.3     1  UNL1        0.0017
     21 C         140.9165  137.3644  164.6175 C.3     1  UNL1        0.0512
     22 C         141.0701  137.1712  163.1379 C.3     1  UNL1        0.1389
     23 O         139.8741  137.2802  162.2393 O.3     1  UNL1       -0.3819
     24 H         139.2564  136.5581  162.4340 H       1  UNL1        0.2104
@<TRIPOS>BOND
     1    19    20    1
     2    20    18    1
     3    17    18    1
     4    17    21    1
     5    21    22    1
     6    22    23    1
     7    17    15    1
     8    15     1    1
     9     1     2   ar
    10     2     3   ar
    11     3     4    1
    12     3     5   ar
    13     5     6   ar
    14     6     7   ar
    15     7     8   ar
    16     8     9   ar
    17     9    10   ar
    18    10    11    1
    19    10    12   ar
    20    12     1   ar
    21    12     6   ar
    22    23    24    1
    23    15    16    1
    24     4    13    1
    25     4    14    1
@<TRIPOS>MOLECULE
*****
 24 25 0 0 0
SMALL
GASTEIGER

@<TRIPOS>ATOM
      1 C         139.2050  140.5296  164.5169 C.ar    1  UNL1        0.1349
      2 N         138.6476  139.5031  163.5759 N.ar    1  UNL1       -0.1992
      3 C         137.8155  139.9330  162.4042 C.ar    1  UNL1        0.2148
      4 N         137.2582  138.9063  161.4632 N.pl3   1  UNL1       -0.3274
      5 N         137.5409  141.3894  162.1735 N.ar    1  UNL1       -0.2138
      6 C         138.0982  142.4160  163.1145 C.ar    1  UNL1        0.0890
      7 C         137.8236  143.8725  162.8837 C.ar    1  UNL1        0.0194
      8 C         138.3809  144.8990  163.8247 C.ar    1  UNL1        0.0039
      9 C         139.2130  144.4692  164.9964 C.ar    1  UNL1        0.0298
     10 C         139.4876  143.0127  165.2272 C.ar    1  UNL1        0.1442
     11 F         140.3197  142.5829  166.3989 F       1  UNL1       -0.2040
     12 C         138.9303  141.9862  164.2862 C.ar    1  UNL1        0.0766
     13 H         137.4385  137.9504  161.6147 H       1  UNL1        0.1452
     14 H         136.7121  139.1884  160.6942 H       1  UNL1        0.1452
     15 N         140.0370  140.0998  165.6886 N.pl3   1  UNL1       -0.3195
     16 H         141.0184  140.0776  165.6138 H       1  UNL1        0.1481
     17 C         139.3738  139.7036  166.9744 C.3     1  UNL1        0.0729
     18 C         140.0822  139.9144  168.2797 C.3     1  UNL1        0.0196
     19 C         139.6003  141.7515  170.0525 C.3     1  UNL1        0.0001
     20 C         139.3188  140.3946  169.4783 C.3     1  UNL1        0.0017
     21 C         138.0021  139.0967  166.9549 C.3     1  UNL1        0.0512
     22 C         137.8197  137.6690  166.5326 C.3     1  UNL1        0.1389
     23 O         137.1369  136.6974  167.4489 O.3     1  UNL1       -0.3819
     24 H         137.6800  136.5641  168.2416 H       1  UNL1        0.2104
@<TRIPOS>BOND
     1    19    20    1
     2    20    18    1
     3    17    18    1
     4    17    21    1
     5    21    22    1
     6    22    23    1
     7    17    15    1
     8    15     1    1
     9     1     2   ar
    10     2     3   ar
    11     3     4    1
    12     3     5   ar
    13     5     6   ar
    14     6     7   ar
    15     7     8   ar
    16     8     9   ar
    17     9    10   ar
    18    10    11    1
    19    10    12   ar
    20    12     1   ar
    21    12     6   ar
    22    23    24    1
    23    15    16    1
    24     4    13    1
    25     4    14    1
@<TRIPOS>MOLECULE
*****
 24 25 0 0 0
SMALL
GASTEIGER

@<TRIPOS>ATOM
      1 C         140.1204  140.0226  167.8781 C.ar    1  UNL1        0.1349
      2 N         138.8765  139.5772  168.5883 N.ar    1  UNL1       -0.1992
      3 C         138.6026  140.0459  169.9866 C.ar    1  UNL1        0.2148
      4 N         137.3587  139.6004  170.6968 N.pl3   1  UNL1       -0.3274
      5 N         139.5726  140.9599  170.6748 N.ar    1  UNL1       -0.2138
      6 C         140.8166  141.4053  169.9646 C.ar    1  UNL1        0.0890
      7 C         141.7866  142.3193  170.6528 C.ar    1  UNL1        0.0194
      8 C         143.0304  142.7647  169.9426 C.ar    1  UNL1        0.0039
      9 C         143.3043  142.2960  168.5443 C.ar    1  UNL1        0.0298
     10 C         142.3343  141.3820  167.8561 C.ar    1  UNL1        0.1442
     11 F         142.6082  140.9134  166.4578 F       1  UNL1       -0.2040
     12 C         141.0904  140.9366  168.5663 C.ar    1  UNL1        0.0766
     13 H         136.7220  139.0005  170.2451 H       1  UNL1        0.1452
     14 H         137.1789  139.9080  171.6146 H       1  UNL1        0.1452
     15 N         140.3942  139.5539  166.4798 N.pl3   1  UNL1       -0.3195
     16 H         141.2654  139.1533  166.2566 H       1  UNL1        0.1481
     17 C         139.3408  139.6957  165.4214 C.3     1  UNL1        0.0729
     18 C         138.6474  141.0111  165.2249 C.3     1  UNL1        0.0196
     19 C         139.8958  143.2158  165.8000 C.3     1  UNL1        0.0001
     20 C         139.4300  142.2133  164.7862 C.3     1  UNL1        0.0017
     21 C         138.9808  138.5219  164.5596 C.3     1  UNL1        0.0512
     22 C         138.6018  138.7339  163.1238 C.3     1  UNL1        0.1389
     23 O         138.2607  137.5584  162.2568 O.3     1  UNL1       -0.3819
     24 H         139.0488  137.0056  162.1368 H       1  UNL1        0.2104
@<TRIPOS>BOND
     1    19    20    1
     2    20    18    1
     3    17    18    1
     4    17    21    1
     5    21    22    1
     6    22    23    1
     7    17    15    1
     8    15     1    1
     9     1     2   ar
    10     2     3   ar
    11     3     4    1
    12     3     5   ar
    13     5     6   ar
    14     6     7   ar
    15     7     8   ar
    16     8     9   ar
    17     9    10   ar
    18    10    11    1
    19    10    12   ar
    20    12     1   ar
    21    12     6   ar
    22    23    24    1
    23    15    16    1
    24     4    13    1
    25     4    14    1
@<TRIPOS>MOLECULE
*****
 24 25 0 0 0
SMALL
GASTEIGER

@<TRIPOS>ATOM
      1 C         140.4841  142.5129  167.7171 C.ar    1  UNL1        0.1349
      2 N         140.0088  143.7553  168.4102 N.ar    1  UNL1       -0.1992
      3 C         140.2917  143.9548  169.8697 C.ar    1  UNL1        0.2148
      4 N         139.8164  145.1972  170.5629 N.pl3   1  UNL1       -0.3274
      5 N         141.0500  142.9118  170.6361 N.ar    1  UNL1       -0.2138
      6 C         141.5253  141.6693  169.9429 C.ar    1  UNL1        0.0890
      7 C         142.2835  140.6264  170.7093 C.ar    1  UNL1        0.0194
      8 C         142.7588  139.3840  170.0161 C.ar    1  UNL1        0.0039
      9 C         142.4758  139.1846  168.5566 C.ar    1  UNL1        0.0298
     10 C         141.7176  140.2275  167.7903 C.ar    1  UNL1        0.1442
     11 F         141.4347  140.0280  166.3307 F       1  UNL1       -0.2040
     12 C         141.2423  141.4699  168.4834 C.ar    1  UNL1        0.0766
     13 H         139.3188  145.8818  170.0599 H       1  UNL1        0.1452
     14 H         140.0021  145.3282  171.5208 H       1  UNL1        0.1452
     15 N         140.2012  142.3135  166.2576 N.pl3   1  UNL1       -0.3195
     16 H         139.6083  141.5835  165.9663 H       1  UNL1        0.1481
     17 C         140.8216  143.2262  165.2417 C.3     1  UNL1        0.0729
     18 C         142.1858  142.9243  164.6961 C.3     1  UNL1        0.0196
     19 C         144.6223  143.5614  165.3346 C.3     1  UNL1        0.0001
     20 C         143.3572  142.8101  165.6262 C.3     1  UNL1        0.0017
     21 C         140.0777  144.4410  164.7715 C.3     1  UNL1        0.0512
     22 C         138.6354  144.6263  165.1391 C.3     1  UNL1        0.1389
     23 O         138.2641  145.4924  166.3061 O.3     1  UNL1       -0.3819
     24 H         138.5898  145.0880  167.1254 H       1  UNL1        0.2104
@<TRIPOS>BOND
     1    19    20    1
     2    20    18    1
     3    17    18    1
     4    17    21    1
     5    21    22    1
     6    22    23    1
     7    17    15    1
     8    15     1    1
     9     1     2   ar
    10     2     3   ar
    11     3     4    1
    12     3     5   ar
    13     5     6   ar
    14     6     7   ar
    15     7     8   ar
    16     8     9   ar
    17     9    10   ar
    18    10    11    1
    19    10    12   ar
    20    12     1   ar
    21    12     6   ar
    22    23    24    1
    23    15    16    1
    24     4    13    1
    25     4    14    1
@<TRIPOS>MOLECULE
*****
 24 25 0 0 0
SMALL
GASTEIGER

@<TRIPOS>ATOM
      1 C         139.7727  143.6955  164.3420 C.ar    1  UNL1        0.1349
      2 N         139.0945  144.6044  163.3602 N.ar    1  UNL1       -0.1992
      3 C         139.9067  145.5631  162.5410 C.ar    1  UNL1        0.2148
      4 N         139.2285  146.4721  161.5591 N.pl3   1  UNL1       -0.3274
      5 N         141.3970  145.6130  162.7035 N.ar    1  UNL1       -0.2138
      6 C         142.0752  144.7041  163.6854 C.ar    1  UNL1        0.0890
      7 C         143.5655  144.7540  163.8479 C.ar    1  UNL1        0.0194
      8 C         144.2437  143.8451  164.8297 C.ar    1  UNL1        0.0039
      9 C         143.4315  142.8863  165.6489 C.ar    1  UNL1        0.0298
     10 C         141.9412  142.8364  165.4864 C.ar    1  UNL1        0.1442
     11 F         141.1291  141.8776  166.3057 F       1  UNL1       -0.2040
     12 C         141.2631  143.7453  164.5046 C.ar    1  UNL1        0.0766
     13 H         138.2503  146.4393  161.4525 H       1  UNL1        0.1452
     14 H         139.7615  147.1013  161.0214 H       1  UNL1        0.1452
     15 N         138.9606  142.7367  165.1613 N.pl3   1  UNL1       -0.3195
     16 H         138.7790  142.9304  166.1093 H       1  UNL1        0.1481
     17 C         138.4250  141.4828  164.5361 C.3     1  UNL1        0.0729
     18 C         138.9849  140.1489  164.9324 C.3     1  UNL1        0.0196
     19 C         137.8497  138.5153  166.6036 C.3     1  UNL1        0.0001
     20 C         138.8000  139.6438  166.3327 C.3     1  UNL1        0.0017
     21 C         137.3293  141.5629  163.5147 C.3     1  UNL1        0.0512
     22 C         137.6688  141.6731  162.0578 C.3     1  UNL1        0.1389
     23 O         137.6100  143.0063  161.3729 O.3     1  UNL1       -0.3819
     24 H         136.6916  143.3176  161.3496 H       1  UNL1        0.2104
@<TRIPOS>BOND
     1    19    20    1
     2    20    18    1
     3    17    18    1
     4    17    21    1
     5    21    22    1
     6    22    23    1
     7    17    15    1
     8    15     1    1
     9     1     2   ar
    10     2     3   ar
    11     3     4    1
    12     3     5   ar
    13     5     6   ar
    14     6     7   ar
    15     7     8   ar
    16     8     9   ar
    17     9    10   ar
    18    10    11    1
    19    10    12   ar
    20    12     1   ar
    21    12     6   ar
    22    23    24    1
    23    15    16    1
    24     4    13    1
    25     4    14    1
