@<TRIPOS>MOLECULE
*****
 40 45 0 0 0
SMALL
GASTEIGER

@<TRIPOS>ATOM
      1 C         137.7741  142.8910  162.9802 C.3     1  UNL1        0.0932
      2 C         137.6403  141.7634  163.9603 C.3     1  UNL1        0.0286
      3 C         137.7017  140.3429  163.4823 C.3     1  UNL1        0.0193
      4 C         137.8969  140.0500  162.0241 C.3     1  UNL1        0.0700
      5 C         138.0307  141.1776  161.0440 C.3     1  UNL1        0.0193
      6 C         137.9693  142.5981  161.5221 C.3     1  UNL1        0.0286
      7 C         137.8697  140.8445  162.2387 C.3     1  UNL1        0.1562
      8 O         137.8142  142.1289  162.6709 O.3     1  UNL1       -0.3572
      9 N         137.9583  138.6296  161.5461 N.3     1  UNL1       -0.2926
     10 H         137.3708  138.5732  160.7142 H       1  UNL1        0.1236
     11 C         139.2788  138.0158  161.1861 C.3     1  UNL1        0.1152
     12 C         140.4681  138.2187  162.0773 C.ar    1  UNL1        0.0765
     13 C         140.6108  137.4108  163.3331 C.ar    1  UNL1        0.0193
     14 C         141.8001  137.6138  164.2243 C.ar    1  UNL1        0.0411
     15 C         142.8467  138.6246  163.8598 C.ar    1  UNL1        0.1708
     16 C         142.7040  139.4325  162.6040 C.ar    1  UNL1        0.1682
     17 N         141.5147  139.2295  161.7128 N.ar    1  UNL1       -0.2304
     18 N         143.7506  140.4433  162.2395 N.am    1  UNL1       -0.2639
     19 C         144.9400  140.6462  163.1307 C.2     1  UNL1        0.2718
     20 O         145.9866  141.6570  162.7662 O.2     1  UNL1       -0.2707
     21 C         145.0827  139.8383  164.3866 C.3     1  UNL1        0.2898
     22 O         144.0361  138.8275  164.7511 O.3     1  UNL1       -0.4628
     23 H         143.6570  140.9735  161.4153 H       1  UNL1        0.1565
     24 C         137.7128  144.3114  163.4581 C.3     1  UNL1        0.0319
     25 C         138.8523  144.8879  164.2451 C.3     1  UNL1        0.0302
     26 C         140.9576  142.4114  167.3571 C.ar    1  UNL1        0.2250
     27 C         142.3572  141.9307  167.1122 C.ar    1  UNL1        0.0593
     28 C         143.0550  142.2754  165.8300 C.ar    1  UNL1        0.0254
     29 C         142.3533  143.1009  164.7926 C.ar    1  UNL1        0.0988
     30 N         143.0511  143.4457  163.5104 N.ar    1  UNL1       -0.2425
     31 C         142.3494  144.2711  162.4730 C.ar    1  UNL1        0.0997
     32 C         140.9497  144.7519  162.7179 C.ar    1  UNL1        0.0602
     33 C         140.2519  144.4072  164.0002 C.ar    1  UNL1       -0.0001
     34 C         140.9537  143.5816  165.0375 C.ar    1  UNL1        0.0979
     35 N         140.2559  143.2369  166.3198 N.ar    1  UNL1       -0.2105
     36 C         140.2480  145.5774  161.6806 C.3     1  UNL1        0.3422
     37 F         139.8307  146.9830  161.9969 F       1  UNL1       -0.1932
     38 F         139.9635  144.9972  160.3268 F       1  UNL1       -0.1932
     39 C         140.2668  143.0385  169.7819 C.3     1  UNL1        0.2542
     40 O         140.2597  142.0667  168.6394 O.3     1  UNL1       -0.4561
@<TRIPOS>BOND
     1    39    40    1
     2    40    26    1
     3    26    27   ar
     4    27    28   ar
     5    28    29   ar
     6    29    30   ar
     7    30    31   ar
     8    31    32   ar
     9    32    36    1
    10    36    37    1
    11    36    38    1
    12    32    33   ar
    13    33    25    1
    14    25    24    1
    15    24     1    1
    16     1     2    1
    17     2     3    1
    18     3     4    1
    19     4     9    1
    20     9    11    1
    21    11    12    1
    22    12    13   ar
    23    13    14   ar
    24    14    15   ar
    25    15    16   ar
    26    16    17   ar
    27    16    18    1
    28    18    19   am
    29    19    20    2
    30    19    21    1
    31    21    22    1
    32     4     5    1
    33     5     6    1
    34     4     7    1
    35     7     8    1
    36    33    34   ar
    37    34    35   ar
    38    35    26   ar
    39    34    29   ar
    40     6     1    1
    41     8     1    1
    42    17    12   ar
    43    22    15    1
    44     9    10    1
    45    18    23    1
@<TRIPOS>MOLECULE
*****
 40 45 0 0 0
SMALL
GASTEIGER

@<TRIPOS>ATOM
      1 C         144.4513  139.7572  163.7208 C.3     1  UNL1        0.0932
      2 C         143.5029  139.3767  164.8189 C.3     1  UNL1        0.0286
      3 C         142.3372  138.4794  164.5257 C.3     1  UNL1        0.0193
      4 C         142.1199  137.9625  163.1344 C.3     1  UNL1        0.0700
      5 C         143.0683  138.3430  162.0363 C.3     1  UNL1        0.0193
      6 C         144.2340  139.2404  162.3295 C.3     1  UNL1        0.0286
      7 C         142.7727  138.4515  163.2467 C.3     1  UNL1        0.1562
      8 O         143.8268  139.2629  163.5117 O.3     1  UNL1       -0.3572
      9 N         140.9542  137.0652  162.8412 N.3     1  UNL1       -0.2926
     10 H         140.7934  136.5078  163.6801 H       1  UNL1        0.1236
     11 C         139.6312  137.6566  162.4542 C.3     1  UNL1        0.1152
     12 C         139.1843  138.9547  163.0586 C.ar    1  UNL1        0.0765
     13 C         138.6007  138.9771  164.4403 C.ar    1  UNL1        0.0193
     14 C         138.1538  140.2751  165.0447 C.ar    1  UNL1        0.0411
     15 C         138.2905  141.5508  164.2675 C.ar    1  UNL1        0.1708
     16 C         138.8740  141.5284  162.8858 C.ar    1  UNL1        0.1682
     17 N         139.3209  140.2303  162.2814 N.ar    1  UNL1       -0.2304
     18 N         139.0106  142.8040  162.1086 N.am    1  UNL1       -0.2639
     19 C         138.5637  144.1021  162.7130 C.2     1  UNL1        0.2718
     20 O         138.7004  145.3777  161.9358 O.2     1  UNL1       -0.2707
     21 C         137.9802  144.1245  164.0947 C.3     1  UNL1        0.2898
     22 O         137.8435  142.8489  164.8720 O.3     1  UNL1       -0.4628
     23 H         139.3936  142.7893  161.2018 H       1  UNL1        0.1565
     24 C         145.6169  140.6545  164.0139 C.3     1  UNL1        0.0319
     25 C         145.6911  142.0162  163.3889 C.3     1  UNL1        0.0302
     26 C         144.1582  142.4671  159.1822 C.ar    1  UNL1        0.2250
     27 C         142.9007  143.2420  158.9212 C.ar    1  UNL1        0.0593
     28 C         142.1542  143.8667  160.0625 C.ar    1  UNL1        0.0254
     29 C         142.6651  143.7164  161.4647 C.ar    1  UNL1        0.0988
     30 N         141.9186  144.3410  162.6060 N.ar    1  UNL1       -0.2425
     31 C         142.4295  144.1907  164.0082 C.ar    1  UNL1        0.0997
     32 C         143.6871  143.4158  164.2692 C.ar    1  UNL1        0.0602
     33 C         144.4336  142.7911  163.1280 C.ar    1  UNL1       -0.0001
     34 C         143.9226  142.9414  161.7257 C.ar    1  UNL1        0.0979
     35 N         144.6691  142.3168  160.5844 N.ar    1  UNL1       -0.2105
     36 C         144.1980  143.2655  165.6715 C.3     1  UNL1        0.3422
     37 F         145.3293  144.1244  166.1536 F       1  UNL1       -0.1932
     38 F         143.5776  142.2562  166.5917 F       1  UNL1       -0.1932
     39 C         144.6983  142.3474  156.6437 C.3     1  UNL1        0.2542
     40 O         144.9047  141.8424  158.0409 O.3     1  UNL1       -0.4561
@<TRIPOS>BOND
     1    39    40    1
     2    40    26    1
     3    26    27   ar
     4    27    28   ar
     5    28    29   ar
     6    29    30   ar
     7    30    31   ar
     8    31    32   ar
     9    32    36    1
    10    36    37    1
    11    36    38    1
    12    32    33   ar
    13    33    25    1
    14    25    24    1
    15    24     1    1
    16     1     2    1
    17     2     3    1
    18     3     4    1
    19     4     9    1
    20     9    11    1
    21    11    12    1
    22    12    13   ar
    23    13    14   ar
    24    14    15   ar
    25    15    16   ar
    26    16    17   ar
    27    16    18    1
    28    18    19   am
    29    19    20    2
    30    19    21    1
    31    21    22    1
    32     4     5    1
    33     5     6    1
    34     4     7    1
    35     7     8    1
    36    33    34   ar
    37    34    35   ar
    38    35    26   ar
    39    34    29   ar
    40     6     1    1
    41     8     1    1
    42    17    12   ar
    43    22    15    1
    44     9    10    1
    45    18    23    1
@<TRIPOS>MOLECULE
*****
 40 45 0 0 0
SMALL
GASTEIGER

@<TRIPOS>ATOM
      1 C         142.1672  137.9831  164.0442 C.3     1  UNL1        0.0932
      2 C         142.4243  138.3498  162.6126 C.3     1  UNL1        0.0286
      3 C         143.5809  139.2382  162.2621 C.3     1  UNL1        0.0193
      4 C         144.4804  139.7600  163.3432 C.3     1  UNL1        0.0700
      5 C         144.2233  139.3933  164.7747 C.3     1  UNL1        0.0193
      6 C         143.0666  138.5048  165.1252 C.3     1  UNL1        0.0286
      7 C         143.8592  139.2763  163.5840 C.3     1  UNL1        0.1562
      8 O         142.8134  138.4729  163.9010 O.3     1  UNL1       -0.3572
      9 N         145.6370  140.6485  162.9926 N.3     1  UNL1       -0.2926
     10 H         145.7077  140.6522  161.9751 H       1  UNL1        0.1236
     11 C         145.6413  142.0826  163.4322 C.3     1  UNL1        0.1152
     12 C         144.4124  142.9246  163.2565 C.ar    1  UNL1        0.0765
     13 C         143.6884  143.4548  164.4585 C.ar    1  UNL1        0.0193
     14 C         142.4595  144.2968  164.2828 C.ar    1  UNL1        0.0411
     15 C         141.9546  144.6085  162.9052 C.ar    1  UNL1        0.1708
     16 C         142.6785  144.0783  161.7033 C.ar    1  UNL1        0.1682
     17 N         143.9075  143.2363  161.8789 N.ar    1  UNL1       -0.2304
     18 N         142.1736  144.3900  160.3256 N.am    1  UNL1       -0.2639
     19 C         140.9447  145.2319  160.1499 C.2     1  UNL1        0.2718
     20 O         140.4397  145.5437  158.7723 O.2     1  UNL1       -0.2707
     21 C         140.2207  145.7622  161.3519 C.3     1  UNL1        0.2898
     22 O         140.7256  145.4505  162.7296 O.3     1  UNL1       -0.4628
     23 H         142.6487  144.0420  159.5367 H       1  UNL1        0.1565
     24 C         141.0106  137.0947  164.3947 C.3     1  UNL1        0.0319
     25 C         139.6701  137.6943  164.7008 C.3     1  UNL1        0.0302
     26 C         140.6499  140.9592  167.6386 C.ar    1  UNL1        0.2250
     27 C         140.3712  142.3910  167.2890 C.ar    1  UNL1        0.0593
     28 C         139.7660  142.7345  165.9603 C.ar    1  UNL1        0.0254
     29 C         139.4394  141.6462  164.9810 C.ar    1  UNL1        0.0988
     30 N         138.8341  141.9898  163.6523 N.ar    1  UNL1       -0.2425
     31 C         138.5075  140.9015  162.6730 C.ar    1  UNL1        0.0997
     32 C         138.7861  139.4696  163.0225 C.ar    1  UNL1        0.0602
     33 C         139.3914  139.1261  164.3513 C.ar    1  UNL1       -0.0001
     34 C         139.7180  140.2144  165.3306 C.ar    1  UNL1        0.0979
     35 N         140.3233  139.8709  166.6593 N.ar    1  UNL1       -0.2105
     36 C         138.4595  138.3813  162.0433 C.3     1  UNL1        0.3422
     37 F         139.5629  137.5898  161.4062 F       1  UNL1       -0.1932
     38 F         137.0295  138.0846  161.7012 F       1  UNL1       -0.1932
     39 C         142.3592  139.6036  169.0494 C.3     1  UNL1        0.2542
     40 O         141.2552  140.6156  168.9673 O.3     1  UNL1       -0.4561
@<TRIPOS>BOND
     1    39    40    1
     2    40    26    1
     3    26    27   ar
     4    27    28   ar
     5    28    29   ar
     6    29    30   ar
     7    30    31   ar
     8    31    32   ar
     9    32    36    1
    10    36    37    1
    11    36    38    1
    12    32    33   ar
    13    33    25    1
    14    25    24    1
    15    24     1    1
    16     1     2    1
    17     2     3    1
    18     3     4    1
    19     4     9    1
    20     9    11    1
    21    11    12    1
    22    12    13   ar
    23    13    14   ar
    24    14    15   ar
    25    15    16   ar
    26    16    17   ar
    27    16    18    1
    28    18    19   am
    29    19    20    2
    30    19    21    1
    31    21    22    1
    32     4     5    1
    33     5     6    1
    34     4     7    1
    35     7     8    1
    36    33    34   ar
    37    34    35   ar
    38    35    26   ar
    39    34    29   ar
    40     6     1    1
    41     8     1    1
    42    17    12   ar
    43    22    15    1
    44     9    10    1
    45    18    23    1
@<TRIPOS>MOLECULE
*****
 40 45 0 0 0
SMALL
GASTEIGER

@<TRIPOS>ATOM
      1 C         138.0686  139.8118  161.8234 C.3     1  UNL1        0.0932
      2 C         138.6468  140.6930  160.7561 C.3     1  UNL1        0.0286
      3 C         138.5633  142.1848  160.8886 C.3     1  UNL1        0.0193
      4 C         137.9017  142.7954  162.0883 C.3     1  UNL1        0.0700
      5 C         137.3235  141.9142  163.1556 C.3     1  UNL1        0.0193
      6 C         137.4069  140.4223  163.0231 C.3     1  UNL1        0.0286
      7 C         137.9233  141.9728  162.0598 C.3     1  UNL1        0.1562
      8 O         137.9988  140.6239  161.9400 O.3     1  UNL1       -0.3572
      9 N         137.8182  144.2872  162.2208 N.3     1  UNL1       -0.2926
     10 H         136.8871  144.4994  162.5790 H       1  UNL1        0.1236
     11 C         138.7949  145.0185  163.0933 C.3     1  UNL1        0.1152
     12 C         139.9493  144.2831  163.7068 C.ar    1  UNL1        0.0765
     13 C         139.8858  143.8508  165.1418 C.ar    1  UNL1        0.0193
     14 C         141.0403  143.1154  165.7553 C.ar    1  UNL1        0.0411
     15 C         142.2582  142.8123  164.9339 C.ar    1  UNL1        0.1708
     16 C         142.3217  143.2445  163.4990 C.ar    1  UNL1        0.1682
     17 N         141.1672  143.9800  162.8854 N.ar    1  UNL1       -0.2304
     18 N         143.5396  142.9413  162.6776 N.am    1  UNL1       -0.2639
     19 C         144.6941  142.2059  163.2911 C.2     1  UNL1        0.2718
     20 O         145.9120  141.9028  162.4697 O.2     1  UNL1       -0.2707
     21 C         144.6306  141.7737  164.7261 C.3     1  UNL1        0.2898
     22 O         143.4127  142.0768  165.5475 O.3     1  UNL1       -0.4628
     23 H         143.5813  143.2250  161.7357 H       1  UNL1        0.1565
     24 C         138.1520  138.3200  161.6910 C.3     1  UNL1        0.0319
     25 C         138.7472  137.5009  162.7977 C.3     1  UNL1        0.0302
     26 C         142.6630  137.8394  160.6063 C.ar    1  UNL1        0.2250
     27 C         143.8855  138.3266  161.3260 C.ar    1  UNL1        0.0593
     28 C         143.8028  138.7011  162.7762 C.ar    1  UNL1        0.0254
     29 C         142.4975  138.5883  163.5066 C.ar    1  UNL1        0.0988
     30 N         142.4148  138.9627  164.9568 N.ar    1  UNL1       -0.2425
     31 C         141.1096  138.8499  165.6873 C.ar    1  UNL1        0.0997
     32 C         139.8870  138.3626  164.9676 C.ar    1  UNL1        0.0602
     33 C         139.9697  137.9882  163.5174 C.ar    1  UNL1       -0.0001
     34 C         141.2750  138.1010  162.7870 C.ar    1  UNL1        0.0979
     35 N         141.3577  137.7266  161.3368 N.ar    1  UNL1       -0.2105
     36 C         138.5818  138.2498  165.6980 C.3     1  UNL1        0.3422
     37 F         137.7963  139.4851  166.0255 F       1  UNL1       -0.1932
     38 F         138.0620  136.9017  166.1011 F       1  UNL1       -0.1932
     39 C         141.7734  138.0484  158.1743 C.3     1  UNL1        0.2542
     40 O         142.7457  137.4649  159.1562 O.3     1  UNL1       -0.4561
@<TRIPOS>BOND
     1    39    40    1
     2    40    26    1
     3    26    27   ar
     4    27    28   ar
     5    28    29   ar
     6    29    30   ar
     7    30    31   ar
     8    31    32   ar
     9    32    36    1
    10    36    37    1
    11    36    38    1
    12    32    33   ar
    13    33    25    1
    14    25    24    1
    15    24     1    1
    16     1     2    1
    17     2     3    1
    18     3     4    1
    19     4     9    1
    20     9    11    1
    21    11    12    1
    22    12    13   ar
    23    13    14   ar
    24    14    15   ar
    25    15    16   ar
    26    16    17   ar
    27    16    18    1
    28    18    19   am
    29    19    20    2
    30    19    21    1
    31    21    22    1
    32     4     5    1
    33     5     6    1
    34     4     7    1
    35     7     8    1
    36    33    34   ar
    37    34    35   ar
    38    35    26   ar
    39    34    29   ar
    40     6     1    1
    41     8     1    1
    42    17    12   ar
    43    22    15    1
    44     9    10    1
    45    18    23    1
@<TRIPOS>MOLECULE
*****
 40 45 0 0 0
SMALL
GASTEIGER

@<TRIPOS>ATOM
      1 C         141.5584  138.5671  164.4259 C.3     1  UNL1        0.0932
      2 C         141.6120  139.0319  163.0007 C.3     1  UNL1        0.0286
      3 C         142.8653  139.6554  162.4618 C.3     1  UNL1        0.0193
      4 C         144.0650  139.8142  163.3481 C.3     1  UNL1        0.0700
      5 C         144.0114  139.3495  164.7733 C.3     1  UNL1        0.0193
      6 C         142.7580  138.7259  165.3122 C.3     1  UNL1        0.0286
      7 C         143.4006  139.4666  163.6882 C.3     1  UNL1        0.1562
      8 O         142.2673  138.9028  164.1756 O.3     1  UNL1       -0.3572
      9 N         145.3183  140.4377  162.8092 N.3     1  UNL1       -0.2926
     10 H         145.3368  140.2435  161.8080 H       1  UNL1        0.1236
     11 C         145.5517  141.9108  162.9689 C.3     1  UNL1        0.1152
     12 C         144.3892  142.8587  162.9693 C.ar    1  UNL1        0.0765
     13 C         143.9369  143.4903  164.2526 C.ar    1  UNL1        0.0193
     14 C         142.7744  144.4381  164.2530 C.ar    1  UNL1        0.0411
     15 C         142.0641  144.7544  162.9703 C.ar    1  UNL1        0.1708
     16 C         142.5163  144.1229  161.6871 C.ar    1  UNL1        0.1682
     17 N         143.6788  143.1750  161.6866 N.ar    1  UNL1       -0.2304
     18 N         141.8059  144.4392  160.4044 N.am    1  UNL1       -0.2639
     19 C         140.6434  145.3870  160.4049 C.2     1  UNL1        0.2718
     20 O         139.9331  145.7034  159.1222 O.2     1  UNL1       -0.2707
     21 C         140.1911  146.0186  161.6881 C.3     1  UNL1        0.2898
     22 O         140.9015  145.7023  162.9708 O.3     1  UNL1       -0.4628
     23 H         142.1027  144.0247  159.5622 H       1  UNL1        0.1565
     24 C         140.3051  137.9436  164.9648 C.3     1  UNL1        0.0319
     25 C         139.3296  138.7743  165.7449 C.3     1  UNL1        0.0302
     26 C         137.7435  141.1362  162.2585 C.ar    1  UNL1        0.2250
     27 C         137.8582  142.6317  162.2515 C.ar    1  UNL1        0.0593
     28 C         138.5015  143.3400  163.4067 C.ar    1  UNL1        0.0254
     29 C         139.0302  142.5527  164.5688 C.ar    1  UNL1        0.0988
     30 N         139.6735  143.2610  165.7240 N.ar    1  UNL1       -0.2425
     31 C         140.2022  142.4737  166.8862 C.ar    1  UNL1        0.0997
     32 C         140.0876  140.9781  166.8932 C.ar    1  UNL1        0.0602
     33 C         139.4443  140.2698  165.7380 C.ar    1  UNL1       -0.0001
     34 C         138.9155  141.0572  164.5758 C.ar    1  UNL1        0.0979
     35 N         138.2722  140.3489  163.4206 N.ar    1  UNL1       -0.2105
     36 C         140.6163  140.1908  168.0553 C.3     1  UNL1        0.3422
     37 F         142.0774  139.8611  168.1353 F       1  UNL1       -0.1932
     38 F         139.6838  139.7332  169.1375 F       1  UNL1       -0.1932
     39 C         137.9016  140.1160  159.8743 C.3     1  UNL1        0.2542
     40 O         137.1002  140.4279  161.1033 O.3     1  UNL1       -0.4561
@<TRIPOS>BOND
     1    39    40    1
     2    40    26    1
     3    26    27   ar
     4    27    28   ar
     5    28    29   ar
     6    29    30   ar
     7    30    31   ar
     8    31    32   ar
     9    32    36    1
    10    36    37    1
    11    36    38    1
    12    32    33   ar
    13    33    25    1
    14    25    24    1
    15    24     1    1
    16     1     2    1
    17     2     3    1
    18     3     4    1
    19     4     9    1
    20     9    11    1
    21    11    12    1
    22    12    13   ar
    23    13    14   ar
    24    14    15   ar
    25    15    16   ar
    26    16    17   ar
    27    16    18    1
    28    18    19   am
    29    19    20    2
    30    19    21    1
    31    21    22    1
    32     4     5    1
    33     5     6    1
    34     4     7    1
    35     7     8    1
    36    33    34   ar
    37    34    35   ar
    38    35    26   ar
    39    34    29   ar
    40     6     1    1
    41     8     1    1
    42    17    12   ar
    43    22    15    1
    44     9    10    1
    45    18    23    1
@<TRIPOS>MOLECULE
*****
 40 45 0 0 0
SMALL
GASTEIGER

@<TRIPOS>ATOM
      1 C         138.1280  139.9423  161.8900 C.3     1  UNL1        0.0932
      2 C         138.8768  140.7838  160.8994 C.3     1  UNL1        0.0286
      3 C         138.8949  142.2765  161.0454 C.3     1  UNL1        0.0193
      4 C         138.1643  142.9279  162.1820 C.3     1  UNL1        0.0700
      5 C         137.4155  142.0865  163.1726 C.3     1  UNL1        0.0193
      6 C         137.3974  140.5937  163.0266 C.3     1  UNL1        0.0286
      7 C         138.1256  142.1063  162.1433 C.3     1  UNL1        0.1562
      8 O         138.1092  140.7566  162.0113 O.3     1  UNL1       -0.3572
      9 N         138.1825  144.4206  162.3280 N.3     1  UNL1       -0.2926
     10 H         137.3684  144.6716  162.8890 H       1  UNL1        0.1236
     11 C         139.3652  145.0987  162.9536 C.3     1  UNL1        0.1152
     12 C         140.3101  144.3147  163.8152 C.ar    1  UNL1        0.0765
     13 C         141.6874  143.9916  163.3165 C.ar    1  UNL1        0.0193
     14 C         142.6323  143.2076  164.1781 C.ar    1  UNL1        0.0411
     15 C         142.2000  142.7467  165.5385 C.ar    1  UNL1        0.1708
     16 C         140.8228  143.0698  166.0373 C.ar    1  UNL1        0.1682
     17 N         139.8778  143.8538  165.1756 N.ar    1  UNL1       -0.2304
     18 N         140.3905  142.6089  167.3977 N.am    1  UNL1       -0.2639
     19 C         141.3354  141.8249  168.2593 C.2     1  UNL1        0.2718
     20 O         140.9030  141.3640  169.6197 O.2     1  UNL1       -0.2707
     21 C         142.7127  141.5018  167.7606 C.3     1  UNL1        0.2898
     22 O         143.1450  141.9627  166.4002 O.3     1  UNL1       -0.4628
     23 H         139.4865  142.8210  167.7250 H       1  UNL1        0.1565
     24 C         138.1098  138.4496  161.7440 C.3     1  UNL1        0.0319
     25 C         138.7442  137.5856  162.7934 C.3     1  UNL1        0.0302
     26 C         142.6646  137.8694  160.6024 C.ar    1  UNL1        0.2250
     27 C         143.8930  138.3426  161.3215 C.ar    1  UNL1        0.0593
     28 C         143.8147  138.7211  162.7708 C.ar    1  UNL1        0.0254
     29 C         142.5079  138.6265  163.5011 C.ar    1  UNL1        0.0988
     30 N         142.4296  139.0051  164.9504 N.ar    1  UNL1       -0.2425
     31 C         141.1229  138.9105  165.6808 C.ar    1  UNL1        0.0997
     32 C         139.8943  138.4373  164.9617 C.ar    1  UNL1        0.0602
     33 C         139.9727  138.0587  163.5124 C.ar    1  UNL1       -0.0001
     34 C         141.2795  138.1534  162.7821 C.ar    1  UNL1        0.0979
     35 N         141.3578  137.7748  161.3328 N.ar    1  UNL1       -0.2105
     36 C         138.5876  138.3427  165.6921 C.3     1  UNL1        0.3422
     37 F         137.8249  139.5895  166.0293 F       1  UNL1       -0.1932
     38 F         138.0435  137.0012  166.0852 F       1  UNL1       -0.1932
     39 C         141.9290  138.2372  158.1380 C.3     1  UNL1        0.2542
     40 O         142.7429  137.4909  159.1531 O.3     1  UNL1       -0.4561
@<TRIPOS>BOND
     1    39    40    1
     2    40    26    1
     3    26    27   ar
     4    27    28   ar
     5    28    29   ar
     6    29    30   ar
     7    30    31   ar
     8    31    32   ar
     9    32    36    1
    10    36    37    1
    11    36    38    1
    12    32    33   ar
    13    33    25    1
    14    25    24    1
    15    24     1    1
    16     1     2    1
    17     2     3    1
    18     3     4    1
    19     4     9    1
    20     9    11    1
    21    11    12    1
    22    12    13   ar
    23    13    14   ar
    24    14    15   ar
    25    15    16   ar
    26    16    17   ar
    27    16    18    1
    28    18    19   am
    29    19    20    2
    30    19    21    1
    31    21    22    1
    32     4     5    1
    33     5     6    1
    34     4     7    1
    35     7     8    1
    36    33    34   ar
    37    34    35   ar
    38    35    26   ar
    39    34    29   ar
    40     6     1    1
    41     8     1    1
    42    17    12   ar
    43    22    15    1
    44     9    10    1
    45    18    23    1
@<TRIPOS>MOLECULE
*****
 40 45 0 0 0
SMALL
GASTEIGER

@<TRIPOS>ATOM
      1 C         141.7579  138.1189  164.0498 C.3     1  UNL1        0.0932
      2 C         142.1709  138.4208  162.6397 C.3     1  UNL1        0.0286
      3 C         143.4284  139.1947  162.3758 C.3     1  UNL1        0.0193
      4 C         144.2730  139.6667  163.5220 C.3     1  UNL1        0.0700
      5 C         143.8601  139.3648  164.9321 C.3     1  UNL1        0.0193
      6 C         142.6025  138.5909  165.1960 C.3     1  UNL1        0.0286
      7 C         143.5924  139.2460  163.7162 C.3     1  UNL1        0.1562
      8 O         142.4553  138.5462  163.9549 O.3     1  UNL1       -0.3572
      9 N         145.5306  140.4406  163.2581 N.3     1  UNL1       -0.2926
     10 H         145.7514  140.3156  162.2702 H       1  UNL1        0.1236
     11 C         145.5743  141.9154  163.5284 C.3     1  UNL1        0.1152
     12 C         144.3466  142.7523  163.3225 C.ar    1  UNL1        0.0765
     13 C         143.5388  143.2022  164.5037 C.ar    1  UNL1        0.0193
     14 C         142.3112  144.0391  164.2978 C.ar    1  UNL1        0.0411
     15 C         141.8913  144.4262  162.9108 C.ar    1  UNL1        0.1708
     16 C         142.6990  143.9764  161.7297 C.ar    1  UNL1        0.1682
     17 N         143.9267  143.1395  161.9355 N.ar    1  UNL1       -0.2304
     18 N         142.2792  144.3635  160.3426 N.am    1  UNL1       -0.2639
     19 C         141.0515  145.2005  160.1368 C.2     1  UNL1        0.2718
     20 O         140.6316  145.5876  158.7497 O.2     1  UNL1       -0.2707
     21 C         140.2437  145.6503  161.3179 C.3     1  UNL1        0.2898
     22 O         140.6636  145.2632  162.7050 O.3     1  UNL1       -0.4628
     23 H         142.8093  144.0683  159.5674 H       1  UNL1        0.1565
     24 C         140.5004  137.3450  164.3137 C.3     1  UNL1        0.0319
     25 C         139.2101  138.0705  164.5563 C.3     1  UNL1        0.0302
     26 C         138.6126  140.0410  160.5550 C.ar    1  UNL1        0.2250
     27 C         138.5632  141.5369  160.4556 C.ar    1  UNL1        0.0593
     28 C         138.7129  142.3759  161.6900 C.ar    1  UNL1        0.0254
     29 C         138.9121  141.7191  163.0237 C.ar    1  UNL1        0.0988
     30 N         139.0618  142.5582  164.2580 N.ar    1  UNL1       -0.2425
     31 C         139.2610  141.9014  165.5918 C.ar    1  UNL1        0.0997
     32 C         139.3105  140.4055  165.6912 C.ar    1  UNL1        0.0602
     33 C         139.1607  139.5664  164.4569 C.ar    1  UNL1       -0.0001
     34 C         138.9615  140.2233  163.1231 C.ar    1  UNL1        0.0979
     35 N         138.8118  139.3842  161.8888 N.ar    1  UNL1       -0.2105
     36 C         139.5096  139.7487  167.0250 C.3     1  UNL1        0.3422
     37 F         140.8737  139.7147  167.6480 F       1  UNL1       -0.1932
     38 F         138.3447  139.1258  167.7357 F       1  UNL1       -0.1932
     39 C         139.6425  138.9702  158.4237 C.3     1  UNL1        0.2542
     40 O         138.4628  139.2019  159.3207 O.3     1  UNL1       -0.4561
@<TRIPOS>BOND
     1    39    40    1
     2    40    26    1
     3    26    27   ar
     4    27    28   ar
     5    28    29   ar
     6    29    30   ar
     7    30    31   ar
     8    31    32   ar
     9    32    36    1
    10    36    37    1
    11    36    38    1
    12    32    33   ar
    13    33    25    1
    14    25    24    1
    15    24     1    1
    16     1     2    1
    17     2     3    1
    18     3     4    1
    19     4     9    1
    20     9    11    1
    21    11    12    1
    22    12    13   ar
    23    13    14   ar
    24    14    15   ar
    25    15    16   ar
    26    16    17   ar
    27    16    18    1
    28    18    19   am
    29    19    20    2
    30    19    21    1
    31    21    22    1
    32     4     5    1
    33     5     6    1
    34     4     7    1
    35     7     8    1
    36    33    34   ar
    37    34    35   ar
    38    35    26   ar
    39    34    29   ar
    40     6     1    1
    41     8     1    1
    42    17    12   ar
    43    22    15    1
    44     9    10    1
    45    18    23    1
@<TRIPOS>MOLECULE
*****
 40 45 0 0 0
SMALL
GASTEIGER

@<TRIPOS>ATOM
      1 C         143.3664  138.8388  163.5266 C.3     1  UNL1        0.0932
      2 C         142.3742  138.3478  164.5388 C.3     1  UNL1        0.0286
      3 C         141.0584  137.7863  164.0881 C.3     1  UNL1        0.0193
      4 C         140.7346  137.7157  162.6251 C.3     1  UNL1        0.0700
      5 C         141.7268  138.2066  161.6129 C.3     1  UNL1        0.0193
      6 C         143.0427  138.7682  162.0636 C.3     1  UNL1        0.0286
      7 C         141.4685  138.0315  162.8240 C.3     1  UNL1        0.1562
      8 O         142.6584  138.5393  163.2315 O.3     1  UNL1       -0.3572
      9 N         139.4188  137.1541  162.1743 N.3     1  UNL1       -0.2926
     10 H         139.2945  136.2671  162.6623 H       1  UNL1        0.1236
     11 C         138.1581  137.9410  162.3784 C.3     1  UNL1        0.1152
     12 C         138.1764  139.4348  162.2445 C.ar    1  UNL1        0.0765
     13 C         138.2784  140.0650  160.8871 C.ar    1  UNL1        0.0193
     14 C         138.2967  141.5589  160.7532 C.ar    1  UNL1        0.0411
     15 C         138.2131  142.4226  161.9767 C.ar    1  UNL1        0.1708
     16 C         138.1111  141.7925  163.3341 C.ar    1  UNL1        0.1682
     17 N         138.0927  140.2986  163.4680 N.ar    1  UNL1       -0.2304
     18 N         138.0274  142.6563  164.5575 N.am    1  UNL1       -0.2639
     19 C         138.0457  144.1502  164.4236 C.2     1  UNL1        0.2718
     20 O         137.9620  145.0139  165.6471 O.2     1  UNL1       -0.2707
     21 C         138.1477  144.7804  163.0662 C.3     1  UNL1        0.2898
     22 O         138.2314  143.9166  161.8427 O.3     1  UNL1       -0.4628
     23 H         137.9604  142.2427  165.4484 H       1  UNL1        0.1565
     24 C         144.6822  139.4003  163.9773 C.3     1  UNL1        0.0319
     25 C         144.8099  140.8648  164.2759 C.3     1  UNL1        0.0302
     26 C         142.5430  141.0600  168.1583 C.ar    1  UNL1        0.2250
     27 C         141.3141  141.9132  168.2671 C.ar    1  UNL1        0.0593
     28 C         140.8409  142.7013  167.0818 C.ar    1  UNL1        0.0254
     29 C         141.5965  142.6363  165.7877 C.ar    1  UNL1        0.0988
     30 N         141.1233  143.4244  164.6025 N.ar    1  UNL1       -0.2425
     31 C         141.8789  143.3594  163.3084 C.ar    1  UNL1        0.0997
     32 C         143.1079  142.5061  163.1995 C.ar    1  UNL1        0.0602
     33 C         143.5811  141.7180  164.3848 C.ar    1  UNL1       -0.0001
     34 C         142.8254  141.7831  165.6789 C.ar    1  UNL1        0.0979
     35 N         143.2986  140.9949  166.8642 N.ar    1  UNL1       -0.2105
     36 C         143.8635  142.4411  161.9054 C.3     1  UNL1        0.3422
     37 F         145.1837  143.1404  161.7718 F       1  UNL1       -0.1932
     38 F         143.2989  141.6766  160.7448 F       1  UNL1       -0.1932
     39 C         142.0976  139.2876  170.0050 C.3     1  UNL1        0.2542
     40 O         143.0162  140.2718  169.3435 O.3     1  UNL1       -0.4561
@<TRIPOS>BOND
     1    39    40    1
     2    40    26    1
     3    26    27   ar
     4    27    28   ar
     5    28    29   ar
     6    29    30   ar
     7    30    31   ar
     8    31    32   ar
     9    32    36    1
    10    36    37    1
    11    36    38    1
    12    32    33   ar
    13    33    25    1
    14    25    24    1
    15    24     1    1
    16     1     2    1
    17     2     3    1
    18     3     4    1
    19     4     9    1
    20     9    11    1
    21    11    12    1
    22    12    13   ar
    23    13    14   ar
    24    14    15   ar
    25    15    16   ar
    26    16    17   ar
    27    16    18    1
    28    18    19   am
    29    19    20    2
    30    19    21    1
    31    21    22    1
    32     4     5    1
    33     5     6    1
    34     4     7    1
    35     7     8    1
    36    33    34   ar
    37    34    35   ar
    38    35    26   ar
    39    34    29   ar
    40     6     1    1
    41     8     1    1
    42    17    12   ar
    43    22    15    1
    44     9    10    1
    45    18    23    1
@<TRIPOS>MOLECULE
*****
 40 45 0 0 0
SMALL
GASTEIGER

@<TRIPOS>ATOM
      1 C         138.9476  143.6130  163.0642 C.3     1  UNL1        0.0932
      2 C         139.5293  143.7591  161.6893 C.3     1  UNL1        0.0286
      3 C         140.9085  144.3223  161.5145 C.3     1  UNL1        0.0193
      4 C         141.7060  144.7395  162.7145 C.3     1  UNL1        0.0700
      5 C         141.1242  144.5935  164.0893 C.3     1  UNL1        0.0193
      6 C         139.7450  144.0302  164.2642 C.3     1  UNL1        0.0286
      7 C         140.9545  144.4362  162.8603 C.3     1  UNL1        0.1562
      8 O         139.7074  143.9269  163.0184 O.3     1  UNL1       -0.3572
      9 N         143.0851  145.3028  162.5396 N.3     1  UNL1       -0.2926
     10 H         143.1089  146.1866  163.0482 H       1  UNL1        0.1236
     11 C         144.2798  144.5136  162.9868 C.3     1  UNL1        0.1152
     12 C         144.2732  143.0175  162.8800 C.ar    1  UNL1        0.0765
     13 C         144.6269  142.1788  164.0723 C.ar    1  UNL1        0.0193
     14 C         144.6203  140.6827  163.9655 C.ar    1  UNL1        0.0411
     15 C         144.2601  140.0251  162.6663 C.ar    1  UNL1        0.1708
     16 C         143.9064  140.8637  161.4740 C.ar    1  UNL1        0.1682
     17 N         143.9130  142.3599  161.5808 N.ar    1  UNL1       -0.2304
     18 N         143.5462  140.2061  160.1748 N.am    1  UNL1       -0.2639
     19 C         143.5396  138.7100  160.0680 C.2     1  UNL1        0.2718
     20 O         143.1794  138.0524  158.7688 O.2     1  UNL1       -0.2707
     21 C         143.8932  137.8713  161.2603 C.3     1  UNL1        0.2898
     22 O         144.2535  138.5289  162.5595 O.3     1  UNL1       -0.4628
     23 H         143.3141  140.7566  159.3923 H       1  UNL1        0.1565
     24 C         137.5684  143.0498  163.2390 C.3     1  UNL1        0.0319
     25 C         137.3728  141.5670  163.3544 C.3     1  UNL1        0.0302
     26 C         140.0708  140.4922  166.7918 C.ar    1  UNL1        0.2250
     27 C         141.2287  139.5638  166.5745 C.ar    1  UNL1        0.0593
     28 C         141.4873  138.9937  165.2113 C.ar    1  UNL1        0.0254
     29 C         140.5880  139.3520  164.0656 C.ar    1  UNL1        0.0988
     30 N         140.8467  138.7819  162.7024 N.ar    1  UNL1       -0.2425
     31 C         139.9474  139.1401  161.5567 C.ar    1  UNL1        0.0997
     32 C         138.7894  140.0686  161.7740 C.ar    1  UNL1        0.0602
     33 C         138.5308  140.6387  163.1371 C.ar    1  UNL1       -0.0001
     34 C         139.4301  140.2803  164.2829 C.ar    1  UNL1        0.0979
     35 N         139.1715  140.8504  165.6460 N.ar    1  UNL1       -0.2105
     36 C         137.8901  140.4268  160.6282 C.3     1  UNL1        0.3422
     37 F         136.6864  139.5838  160.3275 F       1  UNL1       -0.1932
     38 F         138.1945  141.6282  159.7831 F       1  UNL1       -0.1932
     39 C         140.1224  140.2515  169.3782 C.3     1  UNL1        0.2542
     40 O         139.8122  141.0623  168.1549 O.3     1  UNL1       -0.4561
@<TRIPOS>BOND
     1    39    40    1
     2    40    26    1
     3    26    27   ar
     4    27    28   ar
     5    28    29   ar
     6    29    30   ar
     7    30    31   ar
     8    31    32   ar
     9    32    36    1
    10    36    37    1
    11    36    38    1
    12    32    33   ar
    13    33    25    1
    14    25    24    1
    15    24     1    1
    16     1     2    1
    17     2     3    1
    18     3     4    1
    19     4     9    1
    20     9    11    1
    21    11    12    1
    22    12    13   ar
    23    13    14   ar
    24    14    15   ar
    25    15    16   ar
    26    16    17   ar
    27    16    18    1
    28    18    19   am
    29    19    20    2
    30    19    21    1
    31    21    22    1
    32     4     5    1
    33     5     6    1
    34     4     7    1
    35     7     8    1
    36    33    34   ar
    37    34    35   ar
    38    35    26   ar
    39    34    29   ar
    40     6     1    1
    41     8     1    1
    42    17    12   ar
    43    22    15    1
    44     9    10    1
    45    18    23    1
