@<TRIPOS>MOLECULE
*****
 43 48 0 0 0
SMALL
GASTEIGER

@<TRIPOS>ATOM
      1 C         140.7534  142.0676  164.1964 C.ar    1  UNL1        0.1272
      2 N         141.7601  141.4705  163.2582 N.ar    1  UNL1       -0.2304
      3 C         141.7423  142.2702  161.9892 C.ar    1  UNL1        0.1014
      4 C         140.7246  143.3614  162.1431 C.ar    1  UNL1        0.1141
      5 C         140.2756  144.4528  161.2174 C.ar    1  UNL1        0.1432
      6 N         140.8867  144.5780  159.8533 N.pl3   1  UNL1       -0.3414
      7 N         139.2153  145.4190  161.6557 N.ar    1  UNL1       -0.2265
      8 C         138.6041  145.2938  163.0198 C.ar    1  UNL1        0.1193
      9 C         139.0532  144.2024  163.9456 C.ar    1  UNL1        0.1020
     10 N         140.1134  143.2362  163.5072 N.ar    1  UNL1       -0.2884
     11 H         141.5826  143.9438  159.5656 H       1  UNL1        0.1438
     12 H         140.5920  145.2944  159.2457 H       1  UNL1        0.1438
     13 C         139.6881  140.4076  168.9227 C.2     1  UNL1        0.2295
     14 O         138.5127  139.5047  169.1533 O.2     1  UNL1       -0.2747
     15 N         140.0001  140.8938  167.5384 N.am    1  UNL1       -0.2784
     16 C         139.3883  140.6988  166.1827 C.3     1  UNL1        0.1026
     17 C         140.4414  141.5814  165.5807 C.3     1  UNL1        0.0968
     18 C         141.0530  141.7763  166.9363 C.3     1  UNL1        0.1026
     19 C         141.4668  139.6663  169.8094 C.3     1  UNL1        0.0142
     20 C         140.5515  140.8243  170.0763 C.3     1  UNL1        0.1234
     21 C         139.6361  141.9822  170.3431 C.3     1  UNL1        0.1531
     22 O         140.4995  142.3989  171.4968 O.3     1  UNL1       -0.3526
     23 C         141.4149  141.2410  171.2299 C.3     1  UNL1        0.1531
     24 C         142.5928  142.0221  160.7788 C.ar    1  UNL1        0.0192
     25 C         142.1400  141.0494  159.7305 C.ar    1  UNL1        0.0017
     26 C         142.9906  140.8013  158.5201 C.ar    1  UNL1        0.0046
     27 C         144.2939  141.5260  158.3580 C.ar    1  UNL1        0.0537
     28 C         144.7466  142.4987  159.4062 C.ar    1  UNL1        0.0046
     29 C         143.8960  142.7467  160.6166 C.ar    1  UNL1        0.0017
     30 C         145.1444  141.2780  157.1476 C.2     1  UNL1        0.2505
     31 O         145.1761  139.9162  156.5194 O.2     1  UNL1       -0.2698
     32 N         145.9632  142.3918  156.5654 N.am    1  UNL1       -0.2658
     33 H         145.9423  143.2855  156.9777 H       1  UNL1        0.1566
     34 C         146.8138  142.1438  155.3549 C.ar    1  UNL1        0.1343
     35 C         148.3079  142.1096  155.4824 C.ar    1  UNL1        0.0383
     36 C         149.1584  141.8616  154.2719 C.ar    1  UNL1        0.0757
     37 C         148.5148  141.6480  152.9340 C.ar    1  UNL1        0.0246
     38 C         147.0206  141.6822  152.8066 C.ar    1  UNL1        0.1003
     39 N         146.1701  141.9302  154.0170 N.ar    1  UNL1       -0.2290
     40 C         150.6526  141.8274  154.3995 C.3     1  UNL1        0.4187
     41 F         152.1468  141.7931  154.5271 F       1  UNL1       -0.1659
     42 F         150.7720  141.5562  152.9291 F       1  UNL1       -0.1659
     43 F         150.5333  142.0986  155.8700 F       1  UNL1       -0.1659
@<TRIPOS>BOND
     1    19    20    1
     2    20    13    1
     3    13    14    2
     4    13    15   am
     5    15    16    1
     6    16    17    1
     7    17     1    1
     8     1     2   ar
     9     2     3   ar
    10     3    24    1
    11    24    25   ar
    12    25    26   ar
    13    26    27   ar
    14    27    30    1
    15    30    31    2
    16    30    32   am
    17    32    34    1
    18    34    35   ar
    19    35    36   ar
    20    36    40    1
    21    40    41    1
    22    40    42    1
    23    40    43    1
    24    36    37   ar
    25    37    38   ar
    26    38    39   ar
    27    27    28   ar
    28    28    29   ar
    29     3     4   ar
    30     4     5   ar
    31     5     6    1
    32     5     7   ar
    33     7     8   ar
    34     8     9   ar
    35     9    10   ar
    36    17    18    1
    37    20    21    1
    38    21    22    1
    39    22    23    1
    40    23    20    1
    41    18    15    1
    42    10     1   ar
    43    29    24   ar
    44    10     4   ar
    45    39    34   ar
    46    32    33    1
    47     6    11    1
    48     6    12    1
@<TRIPOS>MOLECULE
*****
 43 48 0 0 0
SMALL
GASTEIGER

@<TRIPOS>ATOM
      1 C         141.2949  141.8909  164.4081 C.ar    1  UNL1        0.1272
      2 N         141.4930  140.7561  163.4475 N.ar    1  UNL1       -0.2304
      3 C         140.8255  141.1211  162.1548 C.ar    1  UNL1        0.1014
      4 C         140.2148  142.4817  162.3165 C.ar    1  UNL1        0.1141
      5 C         139.4321  143.3487  161.3755 C.ar    1  UNL1        0.1432
      6 N         139.1419  142.8730  159.9829 N.pl3   1  UNL1       -0.3414
      7 N         138.9395  144.6916  161.8272 N.ar    1  UNL1       -0.2265
      8 C         139.2296  145.1673  163.2198 C.ar    1  UNL1        0.1193
      9 C         140.0124  144.3002  164.1608 C.ar    1  UNL1        0.1020
     10 N         140.5050  142.9574  163.7091 N.ar    1  UNL1       -0.2884
     11 H         139.4653  141.9916  159.6864 H       1  UNL1        0.1438
     12 H         138.6282  143.4421  159.3653 H       1  UNL1        0.1438
     13 C         143.0140  142.0898  169.2282 C.2     1  UNL1        0.2295
     14 O         144.3341  142.7359  169.5277 O.2     1  UNL1       -0.2747
     15 N         142.5105  142.0315  167.8164 N.am    1  UNL1       -0.2784
     16 C         143.0269  142.4942  166.4863 C.3     1  UNL1        0.1026
     17 C         141.7984  141.9492  165.8199 C.3     1  UNL1        0.0968
     18 C         141.2822  141.4865  167.1500 C.3     1  UNL1        0.1026
     19 C         142.8753  140.1790  170.1392 C.3     1  UNL1        0.0142
     20 C         142.1973  141.5018  170.3406 C.3     1  UNL1        0.1234
     21 C         141.5193  142.8246  170.5420 C.3     1  UNL1        0.1531
     22 O         140.7027  142.2366  171.6543 O.3     1  UNL1       -0.3526
     23 C         141.3807  140.9138  171.4529 C.3     1  UNL1        0.1531
     24 C         140.7771  140.2744  160.9176 C.ar    1  UNL1        0.0192
     25 C         139.6135  139.3577  160.6811 C.ar    1  UNL1        0.0017
     26 C         139.5651  138.5110  159.4439 C.ar    1  UNL1        0.0046
     27 C         140.6802  138.5809  158.4431 C.ar    1  UNL1        0.0537
     28 C         141.8438  139.4975  158.6796 C.ar    1  UNL1        0.0046
     29 C         141.8922  140.3442  159.9168 C.ar    1  UNL1        0.0017
     30 C         140.6318  137.7341  157.2059 C.2     1  UNL1        0.2505
     31 O         139.3261  137.5063  156.5036 O.2     1  UNL1       -0.2698
     32 N         141.8891  137.1153  156.6711 N.am    1  UNL1       -0.2658
     33 H         142.7461  137.2648  157.1321 H       1  UNL1        0.1566
     34 C         141.8408  136.2685  155.4339 C.ar    1  UNL1        0.1343
     35 C         141.9034  134.7739  155.5449 C.ar    1  UNL1        0.0383
     36 C         141.8551  133.9272  154.3076 C.ar    1  UNL1        0.0757
     37 C         141.7442  134.5751  152.9593 C.ar    1  UNL1        0.0246
     38 C         141.6816  136.0697  152.8483 C.ar    1  UNL1        0.1003
     39 N         141.7299  136.9164  154.0856 N.ar    1  UNL1       -0.2290
     40 C         141.9176  132.4327  154.4188 C.3     1  UNL1        0.4187
     41 F         141.9802  130.9381  154.5299 F       1  UNL1       -0.1659
     42 F         140.9831  132.4807  155.5911 F       1  UNL1       -0.1659
     43 F         142.8522  132.3846  153.2464 F       1  UNL1       -0.1659
@<TRIPOS>BOND
     1    19    20    1
     2    20    13    1
     3    13    14    2
     4    13    15   am
     5    15    16    1
     6    16    17    1
     7    17     1    1
     8     1     2   ar
     9     2     3   ar
    10     3    24    1
    11    24    25   ar
    12    25    26   ar
    13    26    27   ar
    14    27    30    1
    15    30    31    2
    16    30    32   am
    17    32    34    1
    18    34    35   ar
    19    35    36   ar
    20    36    40    1
    21    40    41    1
    22    40    42    1
    23    40    43    1
    24    36    37   ar
    25    37    38   ar
    26    38    39   ar
    27    27    28   ar
    28    28    29   ar
    29     3     4   ar
    30     4     5   ar
    31     5     6    1
    32     5     7   ar
    33     7     8   ar
    34     8     9   ar
    35     9    10   ar
    36    17    18    1
    37    20    21    1
    38    21    22    1
    39    22    23    1
    40    23    20    1
    41    18    15    1
    42    10     1   ar
    43    29    24   ar
    44    10     4   ar
    45    39    34   ar
    46    32    33    1
    47     6    11    1
    48     6    12    1
@<TRIPOS>MOLECULE
*****
 43 48 0 0 0
SMALL
GASTEIGER

@<TRIPOS>ATOM
      1 C         139.9263  140.7812  164.2154 C.ar    1  UNL1        0.1272
      2 N         140.3593  139.7142  163.2542 N.ar    1  UNL1       -0.2304
      3 C         140.2862  140.2819  161.8677 C.ar    1  UNL1        0.1014
      4 C         139.8080  141.6999  161.9721 C.ar    1  UNL1        0.1141
      5 C         139.5465  142.7499  160.9333 C.ar    1  UNL1        0.1432
      6 N         139.7689  142.4413  159.4824 N.pl3   1  UNL1       -0.3414
      7 N         139.0625  144.1085  161.3456 N.ar    1  UNL1       -0.2265
      8 C         138.8401  144.4170  162.7965 C.ar    1  UNL1        0.1193
      9 C         139.1017  143.3670  163.8353 C.ar    1  UNL1        0.1020
     10 N         139.5856  142.0085  163.4230 N.ar    1  UNL1       -0.2884
     11 H         140.0865  141.5496  159.2118 H       1  UNL1        0.1438
     12 H         139.5972  143.1305  158.8006 H       1  UNL1        0.1438
     13 C         139.6582  140.3160  169.3085 C.2     1  UNL1        0.2295
     14 O         138.4894  139.6172  169.9374 O.2     1  UNL1       -0.2747
     15 N         139.7367  140.4523  167.8168 N.am    1  UNL1       -0.2784
     16 C         138.8699  140.0336  166.6664 C.3     1  UNL1        0.1026
     17 C         139.8478  140.6450  165.7072 C.3     1  UNL1        0.0968
     18 C         140.7145  141.0636  166.8576 C.3     1  UNL1        0.1026
     19 C         141.4925  139.5795  170.0784 C.3     1  UNL1        0.0142
     20 C         140.7485  140.8787  170.1715 C.3     1  UNL1        0.1234
     21 C         140.0045  142.1778  170.2645 C.3     1  UNL1        0.1531
     22 O         141.0948  142.7404  171.1274 O.3     1  UNL1       -0.3526
     23 C         141.8388  141.4413  171.0344 C.3     1  UNL1        0.1531
     24 C         140.6307  139.5588  160.5995 C.ar    1  UNL1        0.0192
     25 C         139.5580  138.8544  159.8227 C.ar    1  UNL1        0.0017
     26 C         139.9026  138.1312  158.5545 C.ar    1  UNL1        0.0046
     27 C         141.3196  138.1124  158.0631 C.ar    1  UNL1        0.0537
     28 C         142.3922  138.8167  158.8399 C.ar    1  UNL1        0.0046
     29 C         142.0477  139.5399  160.1081 C.ar    1  UNL1        0.0017
     30 C         141.6642  137.3892  156.7949 C.2     1  UNL1        0.2505
     31 O         142.9870  137.6298  156.1300 O.2     1  UNL1       -0.2698
     32 N         140.6858  136.4254  156.1917 N.am    1  UNL1       -0.2658
     33 H         139.8175  136.2676  156.6281 H       1  UNL1        0.1566
     34 C         141.0302  135.7022  154.9235 C.ar    1  UNL1        0.1343
     35 C         141.7485  134.3867  154.9816 C.ar    1  UNL1        0.0383
     36 C         142.0929  133.6635  153.7133 C.ar    1  UNL1        0.0757
     37 C         141.7190  134.2559  152.3870 C.ar    1  UNL1        0.0246
     38 C         141.0007  135.5714  152.3288 C.ar    1  UNL1        0.1003
     39 N         140.6563  136.2946  153.5971 N.ar    1  UNL1       -0.2290
     40 C         142.8112  132.3480  153.7716 C.3     1  UNL1        0.4187
     41 F         143.5295  131.0324  153.8297 F       1  UNL1       -0.1659
     42 F         142.8859  132.4548  155.2659 F       1  UNL1       -0.1659
     43 F         142.7365  132.2411  152.2772 F       1  UNL1       -0.1659
@<TRIPOS>BOND
     1    19    20    1
     2    20    13    1
     3    13    14    2
     4    13    15   am
     5    15    16    1
     6    16    17    1
     7    17     1    1
     8     1     2   ar
     9     2     3   ar
    10     3    24    1
    11    24    25   ar
    12    25    26   ar
    13    26    27   ar
    14    27    30    1
    15    30    31    2
    16    30    32   am
    17    32    34    1
    18    34    35   ar
    19    35    36   ar
    20    36    40    1
    21    40    41    1
    22    40    42    1
    23    40    43    1
    24    36    37   ar
    25    37    38   ar
    26    38    39   ar
    27    27    28   ar
    28    28    29   ar
    29     3     4   ar
    30     4     5   ar
    31     5     6    1
    32     5     7   ar
    33     7     8   ar
    34     8     9   ar
    35     9    10   ar
    36    17    18    1
    37    20    21    1
    38    21    22    1
    39    22    23    1
    40    23    20    1
    41    18    15    1
    42    10     1   ar
    43    29    24   ar
    44    10     4   ar
    45    39    34   ar
    46    32    33    1
    47     6    11    1
    48     6    12    1
@<TRIPOS>MOLECULE
*****
 43 48 0 0 0
SMALL
GASTEIGER

@<TRIPOS>ATOM
      1 C         141.9472  140.6268  164.2856 C.ar    1  UNL1        0.1272
      2 N         143.0668  140.7212  163.2919 N.ar    1  UNL1       -0.2304
      3 C         142.4693  141.0095  161.9465 C.ar    1  UNL1        0.1014
      4 C         140.9805  141.0934  162.1088 C.ar    1  UNL1        0.1141
      5 C         139.8770  141.3546  161.1270 C.ar    1  UNL1        0.1432
      6 N         140.1997  141.5911  159.6814 N.pl3   1  UNL1       -0.3414
      7 N         138.4507  141.3792  161.5909 N.ar    1  UNL1       -0.2265
      8 C         138.1280  141.1426  163.0365 C.ar    1  UNL1        0.1193
      9 C         139.2315  140.8815  164.0183 C.ar    1  UNL1        0.1020
     10 N         140.6578  140.8568  163.5545 N.ar    1  UNL1       -0.2884
     11 H         141.1358  141.5749  159.3769 H       1  UNL1        0.1438
     12 H         139.4754  141.7625  159.0370 H       1  UNL1        0.1438
     13 C         142.4402  139.6845  169.2953 C.2     1  UNL1        0.2295
     14 O         142.9531  138.3542  169.7614 O.2     1  UNL1       -0.2747
     15 N         142.2958  139.9605  167.8280 N.am    1  UNL1       -0.2784
     16 C         142.5536  139.1821  166.5719 C.3     1  UNL1        0.1026
     17 C         142.0916  140.3509  165.7529 C.3     1  UNL1        0.0968
     18 C         141.8339  141.1292  167.0090 C.3     1  UNL1        0.1026
     19 C         143.3583  141.4565  170.0144 C.3     1  UNL1        0.0142
     20 C         142.0717  140.7389  170.2966 C.3     1  UNL1        0.1234
     21 C         140.7851  140.0212  170.5788 C.3     1  UNL1        0.1531
     22 O         140.4166  141.0755  171.5801 O.3     1  UNL1       -0.3526
     23 C         141.7032  141.7932  171.2979 C.3     1  UNL1        0.1531
     24 C         143.2276  141.1835  160.6640 C.ar    1  UNL1        0.0192
     25 C         143.2792  140.0652  159.6656 C.ar    1  UNL1        0.0017
     26 C         144.0374  140.2392  158.3831 C.ar    1  UNL1        0.0046
     27 C         144.7441  141.5314  158.0990 C.ar    1  UNL1        0.0537
     28 C         144.6925  142.6497  159.0974 C.ar    1  UNL1        0.0046
     29 C         143.9343  142.4757  160.3799 C.ar    1  UNL1        0.0017
     30 C         145.5023  141.7054  156.8165 C.2     1  UNL1        0.2505
     31 O         145.1470  140.8779  155.6169 O.2     1  UNL1       -0.2698
     32 N         146.6159  142.7069  156.7336 N.am    1  UNL1       -0.2658
     33 H         146.8491  143.2500  157.5210 H       1  UNL1        0.1566
     34 C         147.3742  142.8809  155.4512 C.ar    1  UNL1        0.1343
     35 C         148.5334  141.9822  155.1373 C.ar    1  UNL1        0.0383
     36 C         149.2916  142.1563  153.8548 C.ar    1  UNL1        0.0757
     37 C         148.8907  143.2292  152.8862 C.ar    1  UNL1        0.0246
     38 C         147.7316  144.1279  153.2001 C.ar    1  UNL1        0.1003
     39 N         146.9733  143.9538  154.4826 N.ar    1  UNL1       -0.2290
     40 C         150.4508  141.2575  153.5410 C.3     1  UNL1        0.4187
     41 F         151.6100  140.3586  153.2272 F       1  UNL1       -0.1659
     42 F         150.1243  141.3465  152.0796 F       1  UNL1       -0.1659
     43 F         150.7773  141.1684  155.0023 F       1  UNL1       -0.1659
@<TRIPOS>BOND
     1    19    20    1
     2    20    13    1
     3    13    14    2
     4    13    15   am
     5    15    16    1
     6    16    17    1
     7    17     1    1
     8     1     2   ar
     9     2     3   ar
    10     3    24    1
    11    24    25   ar
    12    25    26   ar
    13    26    27   ar
    14    27    30    1
    15    30    31    2
    16    30    32   am
    17    32    34    1
    18    34    35   ar
    19    35    36   ar
    20    36    40    1
    21    40    41    1
    22    40    42    1
    23    40    43    1
    24    36    37   ar
    25    37    38   ar
    26    38    39   ar
    27    27    28   ar
    28    28    29   ar
    29     3     4   ar
    30     4     5   ar
    31     5     6    1
    32     5     7   ar
    33     7     8   ar
    34     8     9   ar
    35     9    10   ar
    36    17    18    1
    37    20    21    1
    38    21    22    1
    39    22    23    1
    40    23    20    1
    41    18    15    1
    42    10     1   ar
    43    29    24   ar
    44    10     4   ar
    45    39    34   ar
    46    32    33    1
    47     6    11    1
    48     6    12    1
@<TRIPOS>MOLECULE
*****
 43 48 0 0 0
SMALL
GASTEIGER

@<TRIPOS>ATOM
      1 C         142.5032  140.4895  164.3236 C.ar    1  UNL1        0.1272
      2 N         142.1080  139.4737  163.2931 N.ar    1  UNL1       -0.2304
      3 C         142.3123  140.0842  161.9383 C.ar    1  UNL1        0.1014
      4 C         142.8337  141.4773  162.1314 C.ar    1  UNL1        0.1141
      5 C         143.2163  142.5501  161.1553 C.ar    1  UNL1        0.1432
      6 N         143.0983  142.2996  159.6811 N.pl3   1  UNL1       -0.3414
      7 N         143.7168  143.8734  161.6535 N.ar    1  UNL1       -0.2265
      8 C         143.8348  144.1240  163.1277 C.ar    1  UNL1        0.1193
      9 C         143.4522  143.0512  164.1038 C.ar    1  UNL1        0.1020
     10 N         142.9517  141.7279  163.6056 N.ar    1  UNL1       -0.2884
     11 H         142.7698  141.4310  159.3542 H       1  UNL1        0.1438
     12 H         143.3494  143.0037  159.0405 H       1  UNL1        0.1438
     13 C         142.3484  139.8435  169.4016 C.2     1  UNL1        0.2295
     14 O         143.0065  138.6489  170.0261 O.2     1  UNL1       -0.2747
     15 N         142.3938  140.0327  167.9143 N.am    1  UNL1       -0.2784
     16 C         142.9817  139.2684  166.7653 C.3     1  UNL1        0.1026
     17 C         142.4579  140.3003  165.8109 C.3     1  UNL1        0.0968
     18 C         141.8700  141.0645  166.9599 C.3     1  UNL1        0.1026
     19 C         140.4085  139.9999  170.2455 C.3     1  UNL1        0.0142
     20 C         141.6450  140.8488  170.2645 C.3     1  UNL1        0.1234
     21 C         142.8815  141.6977  170.2834 C.3     1  UNL1        0.1531
     22 O         142.1781  142.7030  171.1463 O.3     1  UNL1       -0.3526
     23 C         140.9416  141.8541  171.1273 C.3     1  UNL1        0.1531
     24 C         142.0426  139.4184  160.6215 C.ar    1  UNL1        0.0192
     25 C         143.1221  138.6245  159.9473 C.ar    1  UNL1        0.0017
     26 C         142.8524  137.9587  158.6305 C.ar    1  UNL1        0.0046
     27 C         141.5031  138.0868  157.9878 C.ar    1  UNL1        0.0537
     28 C         140.4236  138.8807  158.6619 C.ar    1  UNL1        0.0046
     29 C         140.6934  139.5464  159.9787 C.ar    1  UNL1        0.0017
     30 C         141.2333  137.4211  156.6710 C.2     1  UNL1        0.2505
     31 O         139.8432  137.4085  156.1078 O.2     1  UNL1       -0.2698
     32 N         142.3538  136.7679  155.9174 N.am    1  UNL1       -0.2658
     33 H         143.2662  136.7762  156.2871 H       1  UNL1        0.1566
     34 C         142.0841  136.1021  154.6006 C.ar    1  UNL1        0.1343
     35 C         142.0361  134.6055  154.5127 C.ar    1  UNL1        0.0383
     36 C         141.7664  133.9398  153.1958 C.ar    1  UNL1        0.0757
     37 C         141.5448  134.7707  151.9668 C.ar    1  UNL1        0.0246
     38 C         141.5929  136.2674  152.0547 C.ar    1  UNL1        0.1003
     39 N         141.8626  136.9331  153.3716 N.ar    1  UNL1       -0.2290
     40 C         141.7183  132.4432  153.1080 C.3     1  UNL1        0.4187
     41 F         141.6703  130.9464  153.0203 F       1  UNL1       -0.1659
     42 F         140.3114  132.5185  152.5933 F       1  UNL1       -0.1659
     43 F         143.1253  132.3678  153.6228 F       1  UNL1       -0.1659
@<TRIPOS>BOND
     1    19    20    1
     2    20    13    1
     3    13    14    2
     4    13    15   am
     5    15    16    1
     6    16    17    1
     7    17     1    1
     8     1     2   ar
     9     2     3   ar
    10     3    24    1
    11    24    25   ar
    12    25    26   ar
    13    26    27   ar
    14    27    30    1
    15    30    31    2
    16    30    32   am
    17    32    34    1
    18    34    35   ar
    19    35    36   ar
    20    36    40    1
    21    40    41    1
    22    40    42    1
    23    40    43    1
    24    36    37   ar
    25    37    38   ar
    26    38    39   ar
    27    27    28   ar
    28    28    29   ar
    29     3     4   ar
    30     4     5   ar
    31     5     6    1
    32     5     7   ar
    33     7     8   ar
    34     8     9   ar
    35     9    10   ar
    36    17    18    1
    37    20    21    1
    38    21    22    1
    39    22    23    1
    40    23    20    1
    41    18    15    1
    42    10     1   ar
    43    29    24   ar
    44    10     4   ar
    45    39    34   ar
    46    32    33    1
    47     6    11    1
    48     6    12    1
@<TRIPOS>MOLECULE
*****
 43 48 0 0 0
SMALL
GASTEIGER

@<TRIPOS>ATOM
      1 C         140.9829  141.1130  164.0179 C.ar    1  UNL1        0.1272
      2 N         140.3706  142.1194  163.0892 N.ar    1  UNL1       -0.2304
      3 C         141.0835  142.0288  161.7726 C.ar    1  UNL1        0.1014
      4 C         142.1363  140.9666  161.8874 C.ar    1  UNL1        0.1141
      5 C         143.1435  140.4416  160.9077 C.ar    1  UNL1        0.1432
      6 N         143.2056  141.0076  159.5200 N.pl3   1  UNL1       -0.3414
      7 N         144.0885  139.3506  161.3158 N.ar    1  UNL1       -0.2265
      8 C         144.0264  138.7846  162.7035 C.ar    1  UNL1        0.1193
      9 C         143.0192  139.3095  163.6832 C.ar    1  UNL1        0.1020
     10 N         142.0741  140.4006  163.2752 N.ar    1  UNL1       -0.2884
     11 H         142.5853  141.7237  159.2522 H       1  UNL1        0.1438
     12 H         143.8667  140.6630  158.8770 H       1  UNL1        0.1438
     13 C         139.5918  140.2594  168.8722 C.2     1  UNL1        0.2295
     14 O         138.3385  139.4905  169.1692 O.2     1  UNL1       -0.2747
     15 N         139.9992  140.5094  167.4504 N.am    1  UNL1       -0.2784
     16 C         139.4303  140.1605  166.1070 C.3     1  UNL1        0.1026
     17 C         140.5755  140.8630  165.4397 C.3     1  UNL1        0.0968
     18 C         141.1443  141.2118  166.7831 C.3     1  UNL1        0.1026
     19 C         141.3510  139.5967  169.8552 C.3     1  UNL1        0.0142
     20 C         140.4377  140.7782  169.9971 C.3     1  UNL1        0.1234
     21 C         139.5244  141.9596  170.1389 C.3     1  UNL1        0.1531
     22 O         140.3703  142.4784  171.2638 O.3     1  UNL1       -0.3526
     23 C         141.2836  141.2970  171.1219 C.3     1  UNL1        0.1531
     24 C         140.7943  142.8555  160.5547 C.ar    1  UNL1        0.0192
     25 C         141.5078  144.1583  160.3458 C.ar    1  UNL1        0.0017
     26 C         141.2186  144.9849  159.1280 C.ar    1  UNL1        0.0046
     27 C         140.2160  144.5088  158.1191 C.ar    1  UNL1        0.0537
     28 C         139.5025  143.2060  158.3280 C.ar    1  UNL1        0.0046
     29 C         139.7916  142.3794  159.5459 C.ar    1  UNL1        0.0017
     30 C         139.9268  145.3354  156.9013 C.2     1  UNL1        0.2505
     31 O         138.7316  145.0242  156.0501 O.2     1  UNL1       -0.2698
     32 N         140.8329  146.4732  156.5348 N.am    1  UNL1       -0.2658
     33 H         141.6173  146.6774  157.0935 H       1  UNL1        0.1566
     34 C         140.5438  147.2999  155.3169 C.ar    1  UNL1        0.1343
     35 C         139.8610  148.6282  155.4568 C.ar    1  UNL1        0.0383
     36 C         139.5720  149.4548  154.2389 C.ar    1  UNL1        0.0757
     37 C         139.9656  148.9531  152.8812 C.ar    1  UNL1        0.0246
     38 C         140.6483  147.6249  152.7414 C.ar    1  UNL1        0.1003
     39 N         140.9374  146.7982  153.9592 N.ar    1  UNL1       -0.2290
     40 C         138.8893  150.7830  154.3789 C.3     1  UNL1        0.4187
     41 F         138.2065  152.1114  154.5187 F       1  UNL1       -0.1659
     42 F         138.7843  150.5731  155.8604 F       1  UNL1       -0.1659
     43 F         138.9942  150.9931  152.8973 F       1  UNL1       -0.1659
@<TRIPOS>BOND
     1    19    20    1
     2    20    13    1
     3    13    14    2
     4    13    15   am
     5    15    16    1
     6    16    17    1
     7    17     1    1
     8     1     2   ar
     9     2     3   ar
    10     3    24    1
    11    24    25   ar
    12    25    26   ar
    13    26    27   ar
    14    27    30    1
    15    30    31    2
    16    30    32   am
    17    32    34    1
    18    34    35   ar
    19    35    36   ar
    20    36    40    1
    21    40    41    1
    22    40    42    1
    23    40    43    1
    24    36    37   ar
    25    37    38   ar
    26    38    39   ar
    27    27    28   ar
    28    28    29   ar
    29     3     4   ar
    30     4     5   ar
    31     5     6    1
    32     5     7   ar
    33     7     8   ar
    34     8     9   ar
    35     9    10   ar
    36    17    18    1
    37    20    21    1
    38    21    22    1
    39    22    23    1
    40    23    20    1
    41    18    15    1
    42    10     1   ar
    43    29    24   ar
    44    10     4   ar
    45    39    34   ar
    46    32    33    1
    47     6    11    1
    48     6    12    1
@<TRIPOS>MOLECULE
*****
 43 48 0 0 0
SMALL
GASTEIGER

@<TRIPOS>ATOM
      1 C         141.7398  141.3327  164.4560 C.ar    1  UNL1        0.1272
      2 N         140.6546  141.8029  163.5333 N.ar    1  UNL1       -0.2304
      3 C         140.8824  141.1733  162.1911 C.ar    1  UNL1        0.1014
      4 C         142.1083  140.3139  162.2842 C.ar    1  UNL1        0.1141
      5 C         142.8105  139.4544  161.2751 C.ar    1  UNL1        0.1432
      6 N         142.2805  139.3559  159.8753 N.pl3   1  UNL1       -0.3414
      7 N         144.0426  138.6934  161.6659 N.ar    1  UNL1       -0.2265
      8 C         144.5725  138.7919  163.0657 C.ar    1  UNL1        0.1193
      9 C         143.8703  139.6514  164.0748 C.ar    1  UNL1        0.1020
     10 N         142.6382  140.4124  163.6840 N.ar    1  UNL1       -0.2884
     11 H         141.4718  139.8553  159.6189 H       1  UNL1        0.1438
     12 H         142.7414  138.7917  159.2131 H       1  UNL1        0.1438
     13 C         142.2825  142.6397  169.3779 C.2     1  UNL1        0.2295
     14 O         143.6077  143.1288  169.8824 O.2     1  UNL1       -0.2747
     15 N         142.1236  142.2569  167.9363 N.am    1  UNL1       -0.2784
     16 C         143.0284  142.2292  166.7403 C.3     1  UNL1        0.1026
     17 C         141.8987  141.7155  165.8976 C.3     1  UNL1        0.0968
     18 C         140.9940  141.7431  167.0936 C.3     1  UNL1        0.1026
     19 C         140.5277  143.7802  169.7242 C.3     1  UNL1        0.0142
     20 C         141.1161  142.5334  170.3151 C.3     1  UNL1        0.1234
     21 C         141.7045  141.2866  170.9060 C.3     1  UNL1        0.1531
     22 O         140.5382  141.1803  171.8432 O.3     1  UNL1       -0.3526
     23 C         139.9498  142.4271  171.2523 C.3     1  UNL1        0.1531
     24 C         140.0333  141.3687  160.9701 C.ar    1  UNL1        0.0192
     25 C         140.2333  142.5762  160.1028 C.ar    1  UNL1        0.0017
     26 C         139.3842  142.7716  158.8818 C.ar    1  UNL1        0.0046
     27 C         138.3351  141.7596  158.5280 C.ar    1  UNL1        0.0537
     28 C         138.1351  140.5522  159.3952 C.ar    1  UNL1        0.0046
     29 C         138.9842  140.3568  160.6163 C.ar    1  UNL1        0.0017
     30 C         137.4860  141.9550  157.3070 C.2     1  UNL1        0.2505
     31 O         137.4881  143.2755  156.5955 O.2     1  UNL1       -0.2698
     32 N         136.6349  140.8298  156.7975 N.am    1  UNL1       -0.2658
     33 H         136.6336  139.9631  157.2645 H       1  UNL1        0.1566
     34 C         135.7858  141.0251  155.5765 C.ar    1  UNL1        0.1343
     35 C         134.3008  141.1865  155.7135 C.ar    1  UNL1        0.0383
     36 C         133.4518  141.3818  154.4924 C.ar    1  UNL1        0.0757
     37 C         134.0877  141.4158  153.1344 C.ar    1  UNL1        0.0246
     38 C         135.5727  141.2544  152.9973 C.ar    1  UNL1        0.1003
     39 N         136.4217  141.0591  154.2184 N.ar    1  UNL1       -0.2290
     40 C         131.9669  141.5432  154.6296 C.3     1  UNL1        0.4187
     41 F         130.4818  141.7046  154.7666 F       1  UNL1       -0.1659
     42 F         132.0626  141.1889  156.0840 F       1  UNL1       -0.1659
     43 F         131.8710  141.8976  153.1751 F       1  UNL1       -0.1659
@<TRIPOS>BOND
     1    19    20    1
     2    20    13    1
     3    13    14    2
     4    13    15   am
     5    15    16    1
     6    16    17    1
     7    17     1    1
     8     1     2   ar
     9     2     3   ar
    10     3    24    1
    11    24    25   ar
    12    25    26   ar
    13    26    27   ar
    14    27    30    1
    15    30    31    2
    16    30    32   am
    17    32    34    1
    18    34    35   ar
    19    35    36   ar
    20    36    40    1
    21    40    41    1
    22    40    42    1
    23    40    43    1
    24    36    37   ar
    25    37    38   ar
    26    38    39   ar
    27    27    28   ar
    28    28    29   ar
    29     3     4   ar
    30     4     5   ar
    31     5     6    1
    32     5     7   ar
    33     7     8   ar
    34     8     9   ar
    35     9    10   ar
    36    17    18    1
    37    20    21    1
    38    21    22    1
    39    22    23    1
    40    23    20    1
    41    18    15    1
    42    10     1   ar
    43    29    24   ar
    44    10     4   ar
    45    39    34   ar
    46    32    33    1
    47     6    11    1
    48     6    12    1
@<TRIPOS>MOLECULE
*****
 43 48 0 0 0
SMALL
GASTEIGER

@<TRIPOS>ATOM
      1 C         142.2342  139.8342  159.0626 C.ar    1  UNL1        0.1272
      2 N         141.6602  138.5004  158.6863 N.ar    1  UNL1       -0.2304
      3 C         142.4333  137.9777  157.5120 C.ar    1  UNL1        0.1014
      4 C         143.4851  138.9884  157.1625 C.ar    1  UNL1        0.1141
      5 C         144.5390  139.0122  156.0954 C.ar    1  UNL1        0.1432
      6 N         144.6621  137.8648  155.1371 N.pl3   1  UNL1       -0.3414
      7 N         145.4699  140.1834  155.9866 N.ar    1  UNL1       -0.2265
      8 C         145.3468  141.3308  156.9450 C.ar    1  UNL1        0.1193
      9 C         144.2929  141.3070  158.0120 C.ar    1  UNL1        0.1020
     10 N         143.3621  140.1358  158.1208 N.ar    1  UNL1       -0.2884
     11 H         144.0511  137.0962  155.2084 H       1  UNL1        0.1438
     12 H         145.3538  137.8805  154.4367 H       1  UNL1        0.1438
     13 C         140.6257  142.8319  162.8907 C.2     1  UNL1        0.2295
     14 O         140.5668  142.2948  164.2900 O.2     1  UNL1       -0.2747
     15 N         141.0968  141.9539  161.7695 N.am    1  UNL1       -0.2784
     16 C         141.5742  140.5360  161.6614 C.3     1  UNL1        0.1026
     17 C         141.7631  140.7122  160.1838 C.3     1  UNL1        0.0968
     18 C         141.2857  142.1301  160.2919 C.3     1  UNL1        0.1026
     19 C         141.6166  144.7075  162.8756 C.3     1  UNL1        0.0142
     20 C         140.2135  144.2471  162.6126 C.3     1  UNL1        0.1234
     21 C         138.8104  143.7867  162.3496 C.3     1  UNL1        0.1531
     22 O         138.3981  145.2019  162.0715 O.3     1  UNL1       -0.3526
     23 C         139.8013  145.6623  162.3345 C.3     1  UNL1        0.1531
     24 C         142.1963  136.6733  156.8103 C.ar    1  UNL1        0.0192
     25 C         141.1953  136.5921  155.6960 C.ar    1  UNL1        0.0017
     26 C         140.9582  135.2877  154.9944 C.ar    1  UNL1        0.0046
     27 C         141.7221  134.0645  155.4070 C.ar    1  UNL1        0.0537
     28 C         142.7230  134.1457  156.5212 C.ar    1  UNL1        0.0046
     29 C         142.9601  135.4501  157.2228 C.ar    1  UNL1        0.0017
     30 C         141.4850  132.7601  154.7053 C.2     1  UNL1        0.2505
     31 O         140.9732  132.7490  153.2954 O.2     1  UNL1       -0.2698
     32 N         141.7598  131.4668  155.4136 N.am    1  UNL1       -0.2658
     33 H         142.0957  131.4741  156.3390 H       1  UNL1        0.1566
     34 C         141.5227  130.1623  154.7121 C.ar    1  UNL1        0.1343
     35 C         140.3163  129.3374  155.0497 C.ar    1  UNL1        0.0383
     36 C         140.0793  128.0330  154.3480 C.ar    1  UNL1        0.0757
     37 C         141.0488  127.5534  153.3088 C.ar    1  UNL1        0.0246
     38 C         142.2553  128.3783  152.9712 C.ar    1  UNL1        0.1003
     39 N         142.4922  129.6827  153.6728 N.ar    1  UNL1       -0.2290
     40 C         138.8729  127.2081  154.6857 C.3     1  UNL1        0.4187
     41 F         137.6663  126.3833  155.0235 F       1  UNL1       -0.1659
     42 F         138.9375  126.5602  153.3344 F       1  UNL1       -0.1659
     43 F         138.8081  127.8560  156.0371 F       1  UNL1       -0.1659
@<TRIPOS>BOND
     1    19    20    1
     2    20    13    1
     3    13    14    2
     4    13    15   am
     5    15    16    1
     6    16    17    1
     7    17     1    1
     8     1     2   ar
     9     2     3   ar
    10     3    24    1
    11    24    25   ar
    12    25    26   ar
    13    26    27   ar
    14    27    30    1
    15    30    31    2
    16    30    32   am
    17    32    34    1
    18    34    35   ar
    19    35    36   ar
    20    36    40    1
    21    40    41    1
    22    40    42    1
    23    40    43    1
    24    36    37   ar
    25    37    38   ar
    26    38    39   ar
    27    27    28   ar
    28    28    29   ar
    29     3     4   ar
    30     4     5   ar
    31     5     6    1
    32     5     7   ar
    33     7     8   ar
    34     8     9   ar
    35     9    10   ar
    36    17    18    1
    37    20    21    1
    38    21    22    1
    39    22    23    1
    40    23    20    1
    41    18    15    1
    42    10     1   ar
    43    29    24   ar
    44    10     4   ar
    45    39    34   ar
    46    32    33    1
    47     6    11    1
    48     6    12    1
@<TRIPOS>MOLECULE
*****
 43 48 0 0 0
SMALL
GASTEIGER

@<TRIPOS>ATOM
      1 C         139.4837  144.6156  157.1511 C.ar    1  UNL1        0.1272
      2 N         139.9767  144.6400  158.5676 N.ar    1  UNL1       -0.2304
      3 C         139.5389  143.3687  159.2326 C.ar    1  UNL1        0.1014
      4 C         138.7753  142.5587  158.2272 C.ar    1  UNL1        0.1141
      5 C         138.1067  141.2190  158.3169 C.ar    1  UNL1        0.1432
      6 N         138.1409  140.4484  159.6033 N.pl3   1  UNL1       -0.3414
      7 N         137.4040  140.6499  157.1202 N.ar    1  UNL1       -0.2265
      8 C         137.3698  141.4206  155.8337 C.ar    1  UNL1        0.1193
      9 C         138.0384  142.7603  155.7440 C.ar    1  UNL1        0.1020
     10 N         138.7412  143.3293  156.9407 N.ar    1  UNL1       -0.2884
     11 H         138.6021  140.8219  160.3888 H       1  UNL1        0.1438
     12 H         137.7020  139.5691  159.6622 H       1  UNL1        0.1438
     13 C         140.2082  148.2806  153.6481 C.2     1  UNL1        0.2295
     14 O         140.5618  147.9110  152.2380 O.2     1  UNL1       -0.2747
     15 N         139.9960  147.2071  154.6740 N.am    1  UNL1       -0.2784
     16 C         140.0481  145.7080  154.6671 C.3     1  UNL1        0.1026
     17 C         139.6959  145.6891  156.1251 C.3     1  UNL1        0.0968
     18 C         139.6438  147.1881  156.1320 C.3     1  UNL1        0.1026
     19 C         141.2243  150.0734  153.1446 C.3     1  UNL1        0.0142
     20 C         140.0667  149.7236  154.0321 C.3     1  UNL1        0.1234
     21 C         138.9091  149.3739  154.9196 C.3     1  UNL1        0.1531
     22 O         138.7676  150.8170  155.3037 O.3     1  UNL1       -0.3526
     23 C         139.9252  151.1667  154.4162 C.3     1  UNL1        0.1531
     24 C         139.8161  142.9763  160.6536 C.ar    1  UNL1        0.0192
     25 C         141.0712  142.2288  160.9941 C.ar    1  UNL1        0.0017
     26 C         141.3484  141.8364  162.4151 C.ar    1  UNL1        0.0046
     27 C         140.3704  142.1915  163.4956 C.ar    1  UNL1        0.0537
     28 C         139.1153  142.9390  163.1551 C.ar    1  UNL1        0.0046
     29 C         138.8382  143.3314  161.7341 C.ar    1  UNL1        0.0017
     30 C         140.6476  141.7991  164.9166 C.2     1  UNL1        0.2505
     31 O         139.5102  141.5801  165.8697 O.2     1  UNL1       -0.2698
     32 N         142.0621  141.6257  165.3844 N.am    1  UNL1       -0.2658
     33 H         142.8086  141.7695  164.7589 H       1  UNL1        0.1566
     34 C         142.3393  141.2333  166.8055 C.ar    1  UNL1        0.1343
     35 C         142.7249  142.2780  167.8105 C.ar    1  UNL1        0.0383
     36 C         143.0021  141.8855  169.2314 C.ar    1  UNL1        0.0757
     37 C         142.8938  140.4484  169.6474 C.ar    1  UNL1        0.0246
     38 C         142.5082  139.4038  168.6424 C.ar    1  UNL1        0.1003
     39 N         142.2310  139.7963  167.2214 N.ar    1  UNL1       -0.2290
     40 C         143.3877  142.9301  170.2364 C.3     1  UNL1        0.4187
     41 F         143.7734  143.9749  171.2414 F       1  UNL1       -0.1659
     42 F         141.9516  143.3470  170.3542 F       1  UNL1       -0.1659
     43 F         144.8239  142.5133  170.1187 F       1  UNL1       -0.1659
@<TRIPOS>BOND
     1    19    20    1
     2    20    13    1
     3    13    14    2
     4    13    15   am
     5    15    16    1
     6    16    17    1
     7    17     1    1
     8     1     2   ar
     9     2     3   ar
    10     3    24    1
    11    24    25   ar
    12    25    26   ar
    13    26    27   ar
    14    27    30    1
    15    30    31    2
    16    30    32   am
    17    32    34    1
    18    34    35   ar
    19    35    36   ar
    20    36    40    1
    21    40    41    1
    22    40    42    1
    23    40    43    1
    24    36    37   ar
    25    37    38   ar
    26    38    39   ar
    27    27    28   ar
    28    28    29   ar
    29     3     4   ar
    30     4     5   ar
    31     5     6    1
    32     5     7   ar
    33     7     8   ar
    34     8     9   ar
    35     9    10   ar
    36    17    18    1
    37    20    21    1
    38    21    22    1
    39    22    23    1
    40    23    20    1
    41    18    15    1
    42    10     1   ar
    43    29    24   ar
    44    10     4   ar
    45    39    34   ar
    46    32    33    1
    47     6    11    1
    48     6    12    1
