@<TRIPOS>MOLECULE
*****
 32 34 0 0 0
SMALL
GASTEIGER

@<TRIPOS>ATOM
      1 C         141.9526  139.2241  165.8233 C.2     1  UNL1        0.2488
      2 O         142.9159  138.1075  165.5492 O.2     1  UNL1       -0.2700
      3 N         141.3843  140.0205  164.6863 N.am    1  UNL1       -0.2999
      4 H         140.7521  140.7534  164.8662 H       1  UNL1        0.1498
      5 C         140.1417  139.9272  167.5485 C.ar    1  UNL1        0.1443
      6 C         139.7467  140.2475  168.9597 C.ar    1  UNL1        0.0520
      7 C         140.7677  140.1851  170.0568 C.ar    1  UNL1        0.0553
      8 N         140.3727  140.5054  171.4680 N.pl3   1  UNL1       -0.3563
      9 C         142.1836  139.8024  169.7428 C.ar    1  UNL1        0.0709
     10 CL        143.2046  139.7399  170.8400 Cl      1  UNL1       -0.0810
     11 C         142.5786  139.4820  168.3317 C.ar    1  UNL1        0.0202
     12 C         141.5576  139.5445  167.2345 C.ar    1  UNL1        0.0882
     13 H         139.4433  140.7567  171.6741 H       1  UNL1        0.1424
     14 H         141.0428  140.4645  172.1881 H       1  UNL1        0.1424
     15 C         138.0698  138.9249  166.3434 C.3     1  UNL1        0.2525
     16 O         139.1207  139.9896  166.4514 O.3     1  UNL1       -0.4712
     17 C         141.7793  139.7002  163.2751 C.3     1  UNL1        0.1017
     18 C         140.9079  138.8141  162.4351 C.3     1  UNL1        0.0394
     19 C         141.3029  138.4939  161.0239 C.3     1  UNL1        0.0739
     20 N         142.5693  139.0596  160.4528 N.3     1  UNL1       -0.2705
     21 C         143.4406  139.9457  161.2928 C.3     1  UNL1        0.1037
     22 C         143.0457  140.2660  162.7039 C.3     1  UNL1        0.1490
     23 O         143.9170  141.1521  163.5439 O.3     1  UNL1       -0.3505
     24 C         145.2579  140.6644  164.0067 C.3     1  UNL1        0.1741
     25 C         142.9642  138.7393  159.0416 C.3     1  UNL1        0.0742
     26 C         142.1926  137.7175  158.2603 C.3     1  UNL1        0.0418
     27 C         142.7588  137.1626  156.9869 C.3     1  UNL1        0.1075
     28 N         142.6325  135.6987  156.6853 N.ar    1  UNL1       -0.3249
     29 C         141.7464  135.0869  155.6409 C.ar    1  UNL1        0.0760
     30 C         141.9363  133.5996  155.6852 C.ar    1  UNL1        0.0202
     31 C         142.9398  133.2922  156.7570 C.ar    1  UNL1        0.0202
     32 C         143.3700  134.5894  157.3751 C.ar    1  UNL1        0.0760
@<TRIPOS>BOND
     1    15    16    1
     2    16     5    1
     3     5     6   ar
     4     6     7   ar
     5     7     8    1
     6     7     9   ar
     7     9    10    1
     8     9    11   ar
     9    11    12   ar
    10    12     1    1
    11     1     2    2
    12     1     3   am
    13    17     3    1
    14    17    18    1
    15    18    19    1
    16    19    20    1
    17    20    25    1
    18    25    26    1
    19    26    27    1
    20    27    28    1
    21    28    29   ar
    22    29    30   ar
    23    30    31   ar
    24    31    32   ar
    25    20    21    1
    26    21    22    1
    27    22    23    1
    28    23    24    1
    29    12     5   ar
    30    22    17    1
    31    32    28   ar
    32     8    13    1
    33     8    14    1
    34     3     4    1
@<TRIPOS>MOLECULE
*****
 32 34 0 0 0
SMALL
GASTEIGER

@<TRIPOS>ATOM
      1 C         140.7109  141.9463  165.6216 C.2     1  UNL1        0.2488
      2 O         140.0678  140.6283  165.3067 O.2     1  UNL1       -0.2700
      3 N         140.7918  143.0119  164.5691 N.am    1  UNL1       -0.2999
      4 H         141.2138  143.8770  164.7758 H       1  UNL1        0.1498
      5 C         142.7585  142.2552  167.1907 C.ar    1  UNL1        0.1443
      6 C         143.3207  142.5076  168.5583 C.ar    1  UNL1        0.0520
      7 C         142.3976  142.7036  169.7242 C.ar    1  UNL1        0.0553
      8 N         142.9599  142.9560  171.0918 N.pl3   1  UNL1       -0.3563
      9 C         140.9123  142.6471  169.5227 C.ar    1  UNL1        0.0709
     10 CL        139.9892  142.8431  170.6887 Cl      1  UNL1       -0.0810
     11 C         140.3501  142.3947  168.1552 C.ar    1  UNL1        0.0202
     12 C         141.2732  142.1987  166.9892 C.ar    1  UNL1        0.0882
     13 H         143.9348  142.9930  171.2241 H       1  UNL1        0.1424
     14 H         142.3541  143.0846  171.8571 H       1  UNL1        0.1424
     15 C         144.3899  143.2364  165.4228 C.3     1  UNL1        0.2525
     16 O         143.6816  142.0592  166.0248 O.3     1  UNL1       -0.4712
     17 C         140.2295  142.7595  163.2015 C.3     1  UNL1        0.1017
     18 C         141.1521  142.5063  162.0463 C.3     1  UNL1        0.0394
     19 C         140.5898  142.2539  160.6787 C.3     1  UNL1        0.0739
     20 N         139.1050  142.2548  160.4665 N.3     1  UNL1       -0.2705
     21 C         138.1823  142.5081  161.6217 C.3     1  UNL1        0.1037
     22 C         138.7446  142.7604  162.9892 C.3     1  UNL1        0.1490
     23 O         137.8219  143.0137  164.1445 O.3     1  UNL1       -0.3505
     24 C         137.7427  144.3815  164.7551 C.3     1  UNL1        0.1741
     25 C         138.5427  142.0024  159.0989 C.3     1  UNL1        0.0742
     26 C         138.0222  140.6418  158.7414 C.3     1  UNL1        0.0418
     27 C         138.8582  139.4251  159.0078 C.3     1  UNL1        0.1075
     28 N         138.9972  138.9024  160.4068 N.ar    1  UNL1       -0.3249
     29 C         137.8883  138.7493  161.4052 C.ar    1  UNL1        0.0760
     30 C         138.4753  138.1932  162.6686 C.ar    1  UNL1        0.0202
     31 C         139.9472  138.0026  162.4511 C.ar    1  UNL1        0.0202
     32 C         140.2698  138.4409  161.0532 C.ar    1  UNL1        0.0760
@<TRIPOS>BOND
     1    15    16    1
     2    16     5    1
     3     5     6   ar
     4     6     7   ar
     5     7     8    1
     6     7     9   ar
     7     9    10    1
     8     9    11   ar
     9    11    12   ar
    10    12     1    1
    11     1     2    2
    12     1     3   am
    13    17     3    1
    14    17    18    1
    15    18    19    1
    16    19    20    1
    17    20    25    1
    18    25    26    1
    19    26    27    1
    20    27    28    1
    21    28    29   ar
    22    29    30   ar
    23    30    31   ar
    24    31    32   ar
    25    20    21    1
    26    21    22    1
    27    22    23    1
    28    23    24    1
    29    12     5   ar
    30    22    17    1
    31    32    28   ar
    32     8    13    1
    33     8    14    1
    34     3     4    1
@<TRIPOS>MOLECULE
*****
 32 34 0 0 0
SMALL
GASTEIGER

@<TRIPOS>ATOM
      1 C         141.8217  139.2701  165.8656 C.2     1  UNL1        0.2488
      2 O         142.6502  138.0597  165.5520 O.2     1  UNL1       -0.2700
      3 N         141.3563  140.1680  164.7578 N.am    1  UNL1       -0.2999
      4 H         140.8125  140.9625  164.9637 H       1  UNL1        0.1498
      5 C         140.0428  139.9293  167.6407 C.ar    1  UNL1        0.1443
      6 C         139.6797  140.2419  169.0621 C.ar    1  UNL1        0.0520
      7 C         140.7326  140.2080  170.1299 C.ar    1  UNL1        0.0553
      8 N         140.3696  140.5207  171.5514 N.pl3   1  UNL1       -0.3563
      9 C         142.1486  139.8615  169.7763 C.ar    1  UNL1        0.0709
     10 CL        143.2015  139.8276  170.8441 Cl      1  UNL1       -0.0810
     11 C         142.5116  139.5489  168.3549 C.ar    1  UNL1        0.0202
     12 C         141.4587  139.5828  167.2871 C.ar    1  UNL1        0.0882
     13 H         139.4402  140.7481  171.7834 H       1  UNL1        0.1424
     14 H         141.0606  140.4984  172.2522 H       1  UNL1        0.1424
     15 C         138.0875  138.7821  166.3715 C.3     1  UNL1        0.2525
     16 O         138.9899  139.9632  166.5728 O.3     1  UNL1       -0.4712
     17 C         141.7193  139.8554  163.3364 C.3     1  UNL1        0.1017
     18 C         142.8721  140.5597  162.6845 C.3     1  UNL1        0.0394
     19 C         143.2352  140.2471  161.2630 C.3     1  UNL1        0.0739
     20 N         142.4454  139.2302  160.4935 N.3     1  UNL1       -0.2705
     21 C         141.2926  138.5259  161.1454 C.3     1  UNL1        0.1037
     22 C         140.9296  138.8385  162.5668 C.3     1  UNL1        0.1490
     23 O         139.7768  138.1342  163.2188 O.3     1  UNL1       -0.3505
     24 C         138.4722  137.9985  162.4910 C.3     1  UNL1        0.1741
     25 C         142.8084  138.9176  159.0721 C.3     1  UNL1        0.0742
     26 C         142.5860  137.5379  158.5273 C.3     1  UNL1        0.0418
     27 C         142.8264  137.2579  157.0733 C.3     1  UNL1        0.1075
     28 N         142.4883  135.9125  156.5027 N.ar    1  UNL1       -0.3249
     29 C         143.2040  134.6266  156.7929 C.ar    1  UNL1        0.0760
     30 C         142.5332  133.5361  156.0113 C.ar    1  UNL1        0.0202
     31 C         141.4029  134.1480  155.2380 C.ar    1  UNL1        0.0202
     32 C         141.3751  135.6167  155.5417 C.ar    1  UNL1        0.0760
@<TRIPOS>BOND
     1    15    16    1
     2    16     5    1
     3     5     6   ar
     4     6     7   ar
     5     7     8    1
     6     7     9   ar
     7     9    10    1
     8     9    11   ar
     9    11    12   ar
    10    12     1    1
    11     1     2    2
    12     1     3   am
    13    17     3    1
    14    17    18    1
    15    18    19    1
    16    19    20    1
    17    20    25    1
    18    25    26    1
    19    26    27    1
    20    27    28    1
    21    28    29   ar
    22    29    30   ar
    23    30    31   ar
    24    31    32   ar
    25    20    21    1
    26    21    22    1
    27    22    23    1
    28    23    24    1
    29    12     5   ar
    30    22    17    1
    31    32    28   ar
    32     8    13    1
    33     8    14    1
    34     3     4    1
@<TRIPOS>MOLECULE
*****
 32 34 0 0 0
SMALL
GASTEIGER

@<TRIPOS>ATOM
      1 C         141.9802  139.3914  165.7714 C.2     1  UNL1        0.2488
      2 O         142.5359  138.0592  165.3638 O.2     1  UNL1       -0.2700
      3 N         141.8350  140.4859  164.7560 N.am    1  UNL1       -0.2999
      4 H         141.4702  141.3604  165.0235 H       1  UNL1        0.1498
      5 C         140.1486  139.9866  167.5153 C.ar    1  UNL1        0.1443
      6 C         139.7381  140.2244  168.9383 C.ar    1  UNL1        0.0520
      7 C         140.7486  140.1048  170.0403 C.ar    1  UNL1        0.0553
      8 N         140.3381  140.3427  171.4634 N.pl3   1  UNL1       -0.3563
      9 C         142.1696  139.7475  169.7195 C.ar    1  UNL1        0.0709
     10 CL        143.1801  139.6280  170.8216 Cl      1  UNL1       -0.0810
     11 C         142.5801  139.5097  168.2965 C.ar    1  UNL1        0.0202
     12 C         141.5696  139.6292  167.1944 C.ar    1  UNL1        0.0882
     13 H         139.4054  140.5772  171.6740 H       1  UNL1        0.1424
     14 H         141.0013  140.2642  172.1867 H       1  UNL1        0.1424
     15 C         138.2238  138.9574  166.1061 C.3     1  UNL1        0.2525
     16 O         139.1381  140.1061  166.4132 O.3     1  UNL1       -0.4712
     17 C         142.2455  140.2482  163.3330 C.3     1  UNL1        0.1017
     18 C         141.2064  139.9566  162.2914 C.3     1  UNL1        0.0394
     19 C         141.6170  139.7188  160.8683 C.3     1  UNL1        0.0739
     20 N         143.0667  139.7726  160.4870 N.3     1  UNL1       -0.2705
     21 C         144.1058  140.0643  161.5287 C.3     1  UNL1        0.1037
     22 C         143.6953  140.3020  162.9517 C.3     1  UNL1        0.1490
     23 O         144.7345  140.5936  163.9934 O.3     1  UNL1       -0.3505
     24 C         145.8071  141.6059  163.7200 C.3     1  UNL1        0.1741
     25 C         143.4772  139.5349  159.0641 C.3     1  UNL1        0.0742
     26 C         143.4488  140.6637  158.0767 C.3     1  UNL1        0.0418
     27 C         144.1441  140.5218  156.7551 C.3     1  UNL1        0.1075
     28 N         145.4492  141.2212  156.5153 N.ar    1  UNL1       -0.3249
     29 C         146.4059  140.9424  155.3941 C.ar    1  UNL1        0.0760
     30 C         147.5748  141.8711  155.5405 C.ar    1  UNL1        0.0202
     31 C         147.3404  142.7238  156.7521 C.ar    1  UNL1        0.0202
     32 C         146.0267  142.3222  157.3546 C.ar    1  UNL1        0.0760
@<TRIPOS>BOND
     1    15    16    1
     2    16     5    1
     3     5     6   ar
     4     6     7   ar
     5     7     8    1
     6     7     9   ar
     7     9    10    1
     8     9    11   ar
     9    11    12   ar
    10    12     1    1
    11     1     2    2
    12     1     3   am
    13    17     3    1
    14    17    18    1
    15    18    19    1
    16    19    20    1
    17    20    25    1
    18    25    26    1
    19    26    27    1
    20    27    28    1
    21    28    29   ar
    22    29    30   ar
    23    30    31   ar
    24    31    32   ar
    25    20    21    1
    26    21    22    1
    27    22    23    1
    28    23    24    1
    29    12     5   ar
    30    22    17    1
    31    32    28   ar
    32     8    13    1
    33     8    14    1
    34     3     4    1
@<TRIPOS>MOLECULE
*****
 32 34 0 0 0
SMALL
GASTEIGER

@<TRIPOS>ATOM
      1 C         140.6136  142.3257  165.7156 C.2     1  UNL1        0.2488
      2 O         141.9504  142.3012  165.0358 O.2     1  UNL1       -0.2700
      3 N         139.4392  142.9673  165.0379 N.am    1  UNL1       -0.2999
      4 H         138.5618  142.9834  165.4842 H       1  UNL1        0.1498
      5 C         139.5561  140.5185  167.2538 C.ar    1  UNL1        0.1443
      6 C         139.3936  139.9015  168.6113 C.ar    1  UNL1        0.0520
      7 C         140.1261  140.4746  169.7882 C.ar    1  UNL1        0.0553
      8 N         139.9636  139.8576  171.1457 N.pl3   1  UNL1       -0.3563
      9 C         141.0210  141.6648  169.6075 C.ar    1  UNL1        0.0709
     10 CL        141.7535  142.2379  170.7844 Cl      1  UNL1       -0.0810
     11 C         141.1835  142.2817  168.2500 C.ar    1  UNL1        0.0202
     12 C         140.4510  141.7086  167.0732 C.ar    1  UNL1        0.0882
     13 H         139.3762  139.0765  171.2643 H       1  UNL1        0.1424
     14 H         140.4443  140.2337  171.9182 H       1  UNL1        0.1424
     15 C         138.0309  138.6813  166.2300 C.3     1  UNL1        0.2525
     16 O         138.8236  139.9454  166.0769 O.3     1  UNL1       -0.4712
     17 C         139.6016  143.5843  163.6804 C.3     1  UNL1        0.1017
     18 C         139.9664  145.0338  163.5542 C.3     1  UNL1        0.0394
     19 C         140.1289  145.6508  162.1966 C.3     1  UNL1        0.0739
     20 N         139.9266  144.8184  160.9654 N.3     1  UNL1       -0.2705
     21 C         139.5618  143.3689  161.0916 C.3     1  UNL1        0.1037
     22 C         139.3993  142.7519  162.4491 C.3     1  UNL1        0.1490
     23 O         139.0346  141.3024  162.5753 O.3     1  UNL1       -0.3505
     24 C         137.5968  140.9008  162.7214 C.3     1  UNL1        0.1741
     25 C         140.0890  145.4354  159.6079 C.3     1  UNL1        0.0742
     26 C         141.4285  145.4211  158.9330 C.3     1  UNL1        0.0418
     27 C         141.5418  145.7886  157.4830 C.3     1  UNL1        0.1075
     28 N         140.3300  145.7402  156.6002 N.ar    1  UNL1       -0.3249
     29 C         139.6933  144.5012  156.0441 C.ar    1  UNL1        0.0760
     30 C         138.5120  144.9176  155.2187 C.ar    1  UNL1        0.0202
     31 C         138.4186  146.4139  155.2648 C.ar    1  UNL1        0.0202
     32 C         139.5422  146.9225  156.1186 C.ar    1  UNL1        0.0760
@<TRIPOS>BOND
     1    15    16    1
     2    16     5    1
     3     5     6   ar
     4     6     7   ar
     5     7     8    1
     6     7     9   ar
     7     9    10    1
     8     9    11   ar
     9    11    12   ar
    10    12     1    1
    11     1     2    2
    12     1     3   am
    13    17     3    1
    14    17    18    1
    15    18    19    1
    16    19    20    1
    17    20    25    1
    18    25    26    1
    19    26    27    1
    20    27    28    1
    21    28    29   ar
    22    29    30   ar
    23    30    31   ar
    24    31    32   ar
    25    20    21    1
    26    21    22    1
    27    22    23    1
    28    23    24    1
    29    12     5   ar
    30    22    17    1
    31    32    28   ar
    32     8    13    1
    33     8    14    1
    34     3     4    1
@<TRIPOS>MOLECULE
*****
 32 34 0 0 0
SMALL
GASTEIGER

@<TRIPOS>ATOM
      1 C         141.5042  141.7400  165.6756 C.2     1  UNL1        0.2488
      2 O         142.1538  142.9114  165.0006 O.2     1  UNL1       -0.2700
      3 N         140.3941  141.0001  164.9899 N.am    1  UNL1       -0.2999
      4 H         139.9677  140.2312  165.4330 H       1  UNL1        0.1498
      5 C         142.1489  139.8508  167.3386 C.ar    1  UNL1        0.1443
      6 C         142.6093  139.4193  168.6994 C.ar    1  UNL1        0.0520
      7 C         142.8854  140.4455  169.7581 C.ar    1  UNL1        0.0553
      8 N         143.3458  140.0139  171.1190 N.pl3   1  UNL1       -0.3563
      9 C         142.7011  141.9031  169.4560 C.ar    1  UNL1        0.0709
     10 CL        142.9771  142.9293  170.5147 Cl      1  UNL1       -0.0810
     11 C         142.2407  142.3346  168.0952 C.ar    1  UNL1        0.0202
     12 C         141.9646  141.3084  167.0365 C.ar    1  UNL1        0.0882
     13 H         143.4668  139.0572  171.3173 H       1  UNL1        0.1424
     14 H         143.5270  140.6874  171.8138 H       1  UNL1        0.1424
     15 C         142.9800  138.3556  165.3832 C.3     1  UNL1        0.2525
     16 O         141.8728  138.8247  166.2799 O.3     1  UNL1       -0.4712
     17 C         139.9337  141.4316  163.6291 C.3     1  UNL1        0.1017
     18 C         140.4500  140.7330  162.4062 C.3     1  UNL1        0.0394
     19 C         139.9895  141.1646  161.0454 C.3     1  UNL1        0.0739
     20 N         139.0128  142.2946  160.9075 N.3     1  UNL1       -0.2705
     21 C         138.4965  142.9931  162.1304 C.3     1  UNL1        0.1037
     22 C         138.9569  142.5616  163.4912 C.3     1  UNL1        0.1490
     23 O         138.4406  143.2602  164.7141 O.3     1  UNL1       -0.3505
     24 C         138.8909  144.6564  165.0266 C.3     1  UNL1        0.1741
     25 C         138.5524  142.7261  159.5467 C.3     1  UNL1        0.0742
     26 C         139.4927  143.4545  158.6328 C.3     1  UNL1        0.0418
     27 C         140.4469  144.4681  159.1915 C.3     1  UNL1        0.1075
     28 N         141.6501  144.0184  159.9661 N.ar    1  UNL1       -0.3249
     29 C         141.9494  144.3462  161.3989 C.ar    1  UNL1        0.0760
     30 C         143.2496  143.6922  161.7622 C.ar    1  UNL1        0.0202
     31 C         143.7538  142.9602  160.5540 C.ar    1  UNL1        0.0202
     32 C         142.7653  143.1617  159.4438 C.ar    1  UNL1        0.0760
@<TRIPOS>BOND
     1    15    16    1
     2    16     5    1
     3     5     6   ar
     4     6     7   ar
     5     7     8    1
     6     7     9   ar
     7     9    10    1
     8     9    11   ar
     9    11    12   ar
    10    12     1    1
    11     1     2    2
    12     1     3   am
    13    17     3    1
    14    17    18    1
    15    18    19    1
    16    19    20    1
    17    20    25    1
    18    25    26    1
    19    26    27    1
    20    27    28    1
    21    28    29   ar
    22    29    30   ar
    23    30    31   ar
    24    31    32   ar
    25    20    21    1
    26    21    22    1
    27    22    23    1
    28    23    24    1
    29    12     5   ar
    30    22    17    1
    31    32    28   ar
    32     8    13    1
    33     8    14    1
    34     3     4    1
@<TRIPOS>MOLECULE
*****
 32 34 0 0 0
SMALL
GASTEIGER

@<TRIPOS>ATOM
      1 C         142.5522  140.0688  164.7490 C.2     1  UNL1        0.2488
      2 O         141.1905  139.7813  164.1895 O.2     1  UNL1       -0.2700
      3 N         143.7615  139.9697  163.8672 N.am    1  UNL1       -0.2999
      4 H         144.6553  140.1584  164.2344 H       1  UNL1        0.1498
      5 C         143.0399  141.8710  166.5557 C.ar    1  UNL1        0.1443
      6 C         143.1922  142.2576  167.9970 C.ar    1  UNL1        0.0520
      7 C         143.0093  141.2285  169.0729 C.ar    1  UNL1        0.0553
      8 N         143.1617  141.6151  170.5142 N.pl3   1  UNL1       -0.3563
      9 C         142.6740  139.8129  168.7075 C.ar    1  UNL1        0.0709
     10 CL        142.4911  138.7838  169.7834 Cl      1  UNL1       -0.0810
     11 C         142.5216  139.4264  167.2662 C.ar    1  UNL1        0.0202
     12 C         142.7046  140.4554  166.1903 C.ar    1  UNL1        0.0882
     13 H         143.3818  142.5443  170.7540 H       1  UNL1        0.1424
     14 H         143.0416  140.9397  171.2204 H       1  UNL1        0.1424
     15 C         144.5302  143.6236  165.3484 C.3     1  UNL1        0.2525
     16 O         143.2228  142.9001  165.4798 O.3     1  UNL1       -0.4712
     17 C         143.6092  139.5831  162.4259 C.3     1  UNL1        0.1017
     18 C         143.1502  138.2016  162.0644 C.3     1  UNL1        0.0394
     19 C         142.9978  137.8150  160.6231 C.3     1  UNL1        0.0739
     20 N         143.3046  138.8100  159.5433 N.3     1  UNL1       -0.2705
     21 C         143.7636  140.1915  159.9048 C.3     1  UNL1        0.1037
     22 C         143.9159  140.5781  161.3460 C.3     1  UNL1        0.1490
     23 O         144.3750  141.9596  161.7075 O.3     1  UNL1       -0.3505
     24 C         143.4324  143.1197  161.5829 C.3     1  UNL1        0.1741
     25 C         143.1522  138.4234  158.1020 C.3     1  UNL1        0.0742
     26 C         142.2814  137.2616  157.7251 C.3     1  UNL1        0.0418
     27 C         142.5304  136.5223  156.4439 C.3     1  UNL1        0.1075
     28 N         142.5593  135.0226  156.4368 N.ar    1  UNL1       -0.3249
     29 C         143.3792  134.1523  157.3424 C.ar    1  UNL1        0.0760
     30 C         143.1000  132.7217  156.9883 C.ar    1  UNL1        0.0202
     31 C         142.1074  132.7078  155.8637 C.ar    1  UNL1        0.0202
     32 C         141.7732  134.1299  155.5228 C.ar    1  UNL1        0.0760
@<TRIPOS>BOND
     1    15    16    1
     2    16     5    1
     3     5     6   ar
     4     6     7   ar
     5     7     8    1
     6     7     9   ar
     7     9    10    1
     8     9    11   ar
     9    11    12   ar
    10    12     1    1
    11     1     2    2
    12     1     3   am
    13    17     3    1
    14    17    18    1
    15    18    19    1
    16    19    20    1
    17    20    25    1
    18    25    26    1
    19    26    27    1
    20    27    28    1
    21    28    29   ar
    22    29    30   ar
    23    30    31   ar
    24    31    32   ar
    25    20    21    1
    26    21    22    1
    27    22    23    1
    28    23    24    1
    29    12     5   ar
    30    22    17    1
    31    32    28   ar
    32     8    13    1
    33     8    14    1
    34     3     4    1
@<TRIPOS>MOLECULE
*****
 32 34 0 0 0
SMALL
GASTEIGER

@<TRIPOS>ATOM
      1 C         141.9134  140.5688  165.6866 C.2     1  UNL1        0.2488
      2 O         142.9178  139.6368  165.0762 O.2     1  UNL1       -0.2700
      3 N         141.3795  141.7222  164.8900 N.am    1  UNL1       -0.2999
      4 H         140.7203  142.3339  165.2906 H       1  UNL1        0.1498
      5 C         139.9741  140.2872  167.3925 C.ar    1  UNL1        0.1443
      6 C         139.5036  140.0658  168.7994 C.ar    1  UNL1        0.0520
      7 C         140.5017  139.9044  169.9074 C.ar    1  UNL1        0.0553
      8 N         140.0311  139.6830  171.3144 N.pl3   1  UNL1       -0.3563
      9 C         141.9704  139.9645  169.6085 C.ar    1  UNL1        0.0709
     10 CL        142.9685  139.8032  170.7165 Cl      1  UNL1       -0.0810
     11 C         142.4409  140.1860  168.2016 C.ar    1  UNL1        0.0202
     12 C         141.4428  140.3473  167.0936 C.ar    1  UNL1        0.0882
     13 H         139.0672  139.6435  171.5106 H       1  UNL1        0.1424
     14 H         140.6862  139.5771  172.0417 H       1  UNL1        0.1424
     15 C         138.1490  139.2774  165.8435 C.3     1  UNL1        0.2525
     16 O         138.9760  140.4485  166.2844 O.3     1  UNL1       -0.4712
     17 C         141.8500  141.9437  163.4830 C.3     1  UNL1        0.1017
     18 C         143.2371  142.4544  163.2277 C.3     1  UNL1        0.0394
     19 C         143.7076  142.6759  161.8207 C.3     1  UNL1        0.0739
     20 N         142.7911  142.3866  160.6691 N.3     1  UNL1       -0.2705
     21 C         141.4041  141.8758  160.9244 C.3     1  UNL1        0.1037
     22 C         140.9335  141.6544  162.3313 C.3     1  UNL1        0.1490
     23 O         139.5465  141.1436  162.5866 O.3     1  UNL1       -0.3505
     24 C         139.1975  139.7230  162.2550 C.3     1  UNL1        0.1741
     25 C         143.2617  142.6081  159.2622 C.3     1  UNL1        0.0742
     26 C         144.1751  141.6121  158.6112 C.3     1  UNL1        0.0418
     27 C         143.7118  140.2027  158.3895 C.3     1  UNL1        0.1075
     28 N         143.3752  139.3306  159.5625 N.ar    1  UNL1       -0.3249
     29 C         142.1219  138.5237  159.7303 C.ar    1  UNL1        0.0760
     30 C         142.2048  137.8066  161.0452 C.ar    1  UNL1        0.0202
     31 C         143.5093  138.1703  161.6901 C.ar    1  UNL1        0.0202
     32 C         144.2327  139.1122  160.7737 C.ar    1  UNL1        0.0760
@<TRIPOS>BOND
     1    15    16    1
     2    16     5    1
     3     5     6   ar
     4     6     7   ar
     5     7     8    1
     6     7     9   ar
     7     9    10    1
     8     9    11   ar
     9    11    12   ar
    10    12     1    1
    11     1     2    2
    12     1     3   am
    13    17     3    1
    14    17    18    1
    15    18    19    1
    16    19    20    1
    17    20    25    1
    18    25    26    1
    19    26    27    1
    20    27    28    1
    21    28    29   ar
    22    29    30   ar
    23    30    31   ar
    24    31    32   ar
    25    20    21    1
    26    21    22    1
    27    22    23    1
    28    23    24    1
    29    12     5   ar
    30    22    17    1
    31    32    28   ar
    32     8    13    1
    33     8    14    1
    34     3     4    1
@<TRIPOS>MOLECULE
*****
 32 34 0 0 0
SMALL
GASTEIGER

@<TRIPOS>ATOM
      1 C         140.9004  141.4013  165.7159 C.2     1  UNL1        0.2488
      2 O         139.7463  142.1009  165.0612 O.2     1  UNL1       -0.2700
      3 N         141.5888  140.2698  165.0118 N.am    1  UNL1       -0.2999
      4 H         142.3463  139.8107  165.4415 H       1  UNL1        0.1498
      5 C         142.8218  142.1009  167.3187 C.ar    1  UNL1        0.1443
      6 C         143.2875  142.5329  168.6775 C.ar    1  UNL1        0.0520
      7 C         142.2976  142.6974  169.7924 C.ar    1  UNL1        0.0553
      8 N         142.7634  143.1294  171.1513 N.pl3   1  UNL1       -0.3563
      9 C         140.8420  142.4299  169.5485 C.ar    1  UNL1        0.0709
     10 CL        139.8521  142.5944  170.6634 Cl      1  UNL1       -0.0810
     11 C         140.3763  141.9979  168.1897 C.ar    1  UNL1        0.0202
     12 C         141.3662  141.8334  167.0748 C.ar    1  UNL1        0.0882
     13 H         143.7188  143.3050  171.3114 H       1  UNL1        0.1424
     14 H         142.1137  143.2374  171.8830 H       1  UNL1        0.1424
     15 C         144.2345  143.1264  165.3945 C.3     1  UNL1        0.2525
     16 O         143.8117  141.9363  166.2038 O.3     1  UNL1       -0.4712
     17 C         141.1230  139.8378  163.6530 C.3     1  UNL1        0.1017
     18 C         141.7274  140.4488  162.4236 C.3     1  UNL1        0.0394
     19 C         141.2617  140.0167  161.0648 C.3     1  UNL1        0.0739
     20 N         140.1915  138.9736  160.9353 N.3     1  UNL1       -0.2705
     21 C         139.5871  138.3626  162.1647 C.3     1  UNL1        0.1037
     22 C         140.0529  138.7946  163.5235 C.3     1  UNL1        0.1490
     23 O         139.4485  138.1836  164.7529 O.3     1  UNL1       -0.3505
     24 C         138.3145  138.8722  165.4527 C.3     1  UNL1        0.1741
     25 C         139.7258  138.5416  159.5765 C.3     1  UNL1        0.0742
     26 C         139.0239  139.5171  158.6790 C.3     1  UNL1        0.0418
     27 C         138.0088  140.4636  159.2482 C.3     1  UNL1        0.1075
     28 N         138.4566  141.6573  160.0384 N.ar    1  UNL1       -0.3249
     29 C         138.0914  141.9602  161.4614 C.ar    1  UNL1        0.0760
     30 C         138.7574  143.2478  161.8469 C.ar    1  UNL1        0.0202
     31 C         139.5341  143.7407  160.6621 C.ar    1  UNL1        0.0202
     32 C         139.3483  142.7578  159.5444 C.ar    1  UNL1        0.0760
@<TRIPOS>BOND
     1    15    16    1
     2    16     5    1
     3     5     6   ar
     4     6     7   ar
     5     7     8    1
     6     7     9   ar
     7     9    10    1
     8     9    11   ar
     9    11    12   ar
    10    12     1    1
    11     1     2    2
    12     1     3   am
    13    17     3    1
    14    17    18    1
    15    18    19    1
    16    19    20    1
    17    20    25    1
    18    25    26    1
    19    26    27    1
    20    27    28    1
    21    28    29   ar
    22    29    30   ar
    23    30    31   ar
    24    31    32   ar
    25    20    21    1
    26    21    22    1
    27    22    23    1
    28    23    24    1
    29    12     5   ar
    30    22    17    1
    31    32    28   ar
    32     8    13    1
    33     8    14    1
    34     3     4    1
