@<TRIPOS>MOLECULE
*****
 32 36 0 0 0
SMALL
GASTEIGER

@<TRIPOS>ATOM
      1 C         140.7142  138.7678  161.2713 C.ar    1  UNL1       -0.0002
      2 C         142.1932  138.9322  161.0826 C.ar    1  UNL1        0.0001
      3 C         142.7825  138.8908  159.7039 C.ar    1  UNL1        0.0042
      4 C         141.8929  138.6850  158.5138 C.ar    1  UNL1        0.0497
      5 C         140.4140  138.5207  158.7025 C.ar    1  UNL1       -0.0161
      6 C         139.8246  138.5620  160.0812 C.ar    1  UNL1       -0.0041
      7 C         139.5244  138.3149  157.5124 C.3     1  UNL1        0.0480
      8 C         140.1137  138.2735  156.1337 C.3     1  UNL1        0.0984
      9 N         141.5927  138.4379  155.9450 N.am    1  UNL1       -0.2743
     10 C         142.4823  138.6437  157.1350 C.2     1  UNL1        0.2488
     11 O         143.9613  138.8081  156.9464 O.2     1  UNL1       -0.2699
     12 C         138.9460  138.8918  165.4075 C.ar    1  UNL1        0.0810
     13 C         139.7084  137.6823  164.9537 C.ar    1  UNL1        0.0068
     14 C         140.2978  137.6410  163.5750 C.ar    1  UNL1        0.0003
     15 C         140.1248  138.8091  162.6500 C.ar    1  UNL1        0.0022
     16 C         139.3625  140.0186  163.1038 C.ar    1  UNL1        0.0298
     17 C         138.7730  140.0599  164.4826 C.ar    1  UNL1        0.1445
     18 F         138.0107  141.2694  164.9364 F       1  UNL1       -0.2040
     19 O         137.0971  138.1758  167.0865 O.2     1  UNL1       -0.2698
     20 C         138.3567  138.9331  166.7862 C.2     1  UNL1        0.2512
     21 N         139.0268  139.7316  167.8647 N.am    1  UNL1       -0.2760
     22 C         138.5571  139.8666  169.2828 C.3     1  UNL1        0.0938
     23 C         139.5243  140.7539  170.0090 C.3     1  UNL1        0.0233
     24 C         140.5919  141.1672  169.0396 C.3     1  UNL1        0.0233
     25 C         140.2843  140.5355  167.7144 C.3     1  UNL1        0.0938
     26 C         142.1821  138.3966  154.5663 C.3     1  UNL1        0.1110
     27 C         142.4311  137.0778  153.8963 C.3     1  UNL1        0.0939
     28 N         142.6102  135.8388  154.7226 N.3     1  UNL1       -0.2712
     29 C         143.8368  135.4693  155.5030 C.3     1  UNL1        0.0722
     30 C         143.5789  134.1538  156.1763 C.3     1  UNL1        0.0188
     31 C         142.1930  133.7105  155.8120 C.3     1  UNL1        0.0188
     32 C         141.5943  134.7519  154.9136 C.3     1  UNL1        0.0722
@<TRIPOS>BOND
     1    19    20    2
     2    20    12    1
     3    12    13   ar
     4    13    14   ar
     5    14    15   ar
     6    15     1    1
     7     1     2   ar
     8     2     3   ar
     9     3     4   ar
    10     4     5   ar
    11     5     6   ar
    12     5     7    1
    13     7     8    1
    14     8     9    1
    15     9    26    1
    16    26    27    1
    17    27    28    1
    18    28    29    1
    19    29    30    1
    20    30    31    1
    21    31    32    1
    22     9    10   am
    23    10    11    2
    24    15    16   ar
    25    16    17   ar
    26    17    18    1
    27    20    21   am
    28    21    22    1
    29    22    23    1
    30    23    24    1
    31    24    25    1
    32    17    12   ar
    33    25    21    1
    34     6     1   ar
    35    32    28    1
    36    10     4    1
@<TRIPOS>MOLECULE
*****
 32 36 0 0 0
SMALL
GASTEIGER

@<TRIPOS>ATOM
      1 C         140.1641  139.2008  162.4556 C.ar    1  UNL1       -0.0002
      2 C         138.9400  139.4423  161.6231 C.ar    1  UNL1        0.0001
      3 C         138.9665  139.1583  160.1505 C.ar    1  UNL1        0.0042
      4 C         140.2171  138.6327  159.5104 C.ar    1  UNL1        0.0497
      5 C         141.4412  138.3911  160.3430 C.ar    1  UNL1       -0.0161
      6 C         141.4147  138.6752  161.8155 C.ar    1  UNL1       -0.0041
      7 C         142.6918  137.8655  159.7029 C.3     1  UNL1        0.0480
      8 C         142.7183  137.5814  158.2303 C.3     1  UNL1        0.0984
      9 N         141.4942  137.8230  157.3977 N.am    1  UNL1       -0.2743
     10 C         140.2436  138.3486  158.0378 C.2     1  UNL1        0.2488
     11 O         139.0195  138.5901  157.2052 O.2     1  UNL1       -0.2699
     12 C         140.0846  140.0530  166.8735 C.ar    1  UNL1        0.0810
     13 C         138.9617  140.5252  165.9982 C.ar    1  UNL1        0.0068
     14 C         138.9882  140.2412  164.5256 C.ar    1  UNL1        0.0003
     15 C         140.1376  139.4849  163.9283 C.ar    1  UNL1        0.0022
     16 C         141.2605  139.0126  164.8035 C.ar    1  UNL1        0.0298
     17 C         141.2340  139.2967  166.2762 C.ar    1  UNL1        0.1445
     18 F         142.3569  138.8244  167.1514 F       1  UNL1       -0.2040
     19 O         138.9603  139.7736  169.1990 O.2     1  UNL1       -0.2698
     20 C         140.0581  140.3371  168.3461 C.2     1  UNL1        0.2512
     21 N         141.1293  141.1846  168.9658 N.am    1  UNL1       -0.2760
     22 C         141.2339  141.5523  170.4162 C.3     1  UNL1        0.0938
     23 C         142.4533  142.4082  170.5908 C.3     1  UNL1        0.0233
     24 C         143.1024  142.5695  169.2481 C.3     1  UNL1        0.0233
     25 C         142.2842  141.8133  168.2438 C.3     1  UNL1        0.0938
     26 C         141.5207  137.5389  155.9251 C.3     1  UNL1        0.1110
     27 C         140.9979  136.2333  155.4036 C.3     1  UNL1        0.0939
     28 N         141.8427  134.9970  155.4944 N.3     1  UNL1       -0.2712
     29 C         143.3147  134.9542  155.7798 C.3     1  UNL1        0.0722
     30 C         143.7456  133.5174  155.7776 C.3     1  UNL1        0.0188
     31 C         142.5399  132.6723  155.4908 C.3     1  UNL1        0.0188
     32 C         141.3639  133.5868  155.3158 C.3     1  UNL1        0.0722
@<TRIPOS>BOND
     1    19    20    2
     2    20    12    1
     3    12    13   ar
     4    13    14   ar
     5    14    15   ar
     6    15     1    1
     7     1     2   ar
     8     2     3   ar
     9     3     4   ar
    10     4     5   ar
    11     5     6   ar
    12     5     7    1
    13     7     8    1
    14     8     9    1
    15     9    26    1
    16    26    27    1
    17    27    28    1
    18    28    29    1
    19    29    30    1
    20    30    31    1
    21    31    32    1
    22     9    10   am
    23    10    11    2
    24    15    16   ar
    25    16    17   ar
    26    17    18    1
    27    20    21   am
    28    21    22    1
    29    22    23    1
    30    23    24    1
    31    24    25    1
    32    17    12   ar
    33    25    21    1
    34     6     1   ar
    35    32    28    1
    36    10     4    1
@<TRIPOS>MOLECULE
*****
 32 36 0 0 0
SMALL
GASTEIGER

@<TRIPOS>ATOM
      1 C         142.1346  138.6855  162.6325 C.ar    1  UNL1       -0.0002
      2 C         143.3746  138.1771  161.9588 C.ar    1  UNL1        0.0001
      3 C         143.3658  137.8952  160.4856 C.ar    1  UNL1        0.0042
      4 C         142.1170  138.1218  159.6861 C.ar    1  UNL1        0.0497
      5 C         140.8770  138.6302  160.3598 C.ar    1  UNL1       -0.0161
      6 C         140.8858  138.9121  161.8330 C.ar    1  UNL1       -0.0041
      7 C         139.6283  138.8567  159.5602 C.3     1  UNL1        0.0480
      8 C         139.6195  138.5749  158.0870 C.3     1  UNL1        0.0984
      9 N         140.8595  138.0664  157.4132 N.am    1  UNL1       -0.2743
     10 C         142.1083  137.8398  158.2128 C.2     1  UNL1        0.2488
     11 O         143.3482  137.3314  157.5391 O.2     1  UNL1       -0.2699
     12 C         142.1609  139.5313  167.0523 C.ar    1  UNL1        0.0810
     13 C         143.4554  139.4114  166.3038 C.ar    1  UNL1        0.0068
     14 C         143.4466  139.1295  164.8306 C.ar    1  UNL1        0.0003
     15 C         142.1434  138.9675  164.1058 C.ar    1  UNL1        0.0022
     16 C         140.8490  139.0873  164.8542 C.ar    1  UNL1        0.0298
     17 C         140.8577  139.3692  166.3275 C.ar    1  UNL1        0.1445
     18 F         139.5633  139.4891  167.0758 F       1  UNL1       -0.2040
     19 O         142.7679  138.8187  169.4759 O.2     1  UNL1       -0.2698
     20 C         142.1697  139.8132  168.5255 C.2     1  UNL1        0.2512
     21 N         141.5803  141.0896  169.0484 N.am    1  UNL1       -0.2760
     22 C         141.5174  141.5070  170.4877 C.3     1  UNL1        0.0938
     23 C         140.8485  142.8480  170.5526 C.3     1  UNL1        0.0233
     24 C         140.4981  143.2595  169.1533 C.3     1  UNL1        0.0233
     25 C         140.9503  142.1726  168.2237 C.3     1  UNL1        0.0938
     26 C         140.8507  137.7845  155.9400 C.3     1  UNL1        0.1110
     27 C         140.2088  136.5326  155.4198 C.3     1  UNL1        0.0939
     28 N         141.0607  135.4173  154.8902 N.3     1  UNL1       -0.2712
     29 C         141.8533  134.4459  155.7137 C.3     1  UNL1        0.0722
     30 C         142.5521  133.5058  154.7766 C.3     1  UNL1        0.0188
     31 C         142.1912  133.8962  153.3739 C.3     1  UNL1        0.0188
     32 C         141.2695  135.0775  153.4441 C.3     1  UNL1        0.0722
@<TRIPOS>BOND
     1    19    20    2
     2    20    12    1
     3    12    13   ar
     4    13    14   ar
     5    14    15   ar
     6    15     1    1
     7     1     2   ar
     8     2     3   ar
     9     3     4   ar
    10     4     5   ar
    11     5     6   ar
    12     5     7    1
    13     7     8    1
    14     8     9    1
    15     9    26    1
    16    26    27    1
    17    27    28    1
    18    28    29    1
    19    29    30    1
    20    30    31    1
    21    31    32    1
    22     9    10   am
    23    10    11    2
    24    15    16   ar
    25    16    17   ar
    26    17    18    1
    27    20    21   am
    28    21    22    1
    29    22    23    1
    30    23    24    1
    31    24    25    1
    32    17    12   ar
    33    25    21    1
    34     6     1   ar
    35    32    28    1
    36    10     4    1
@<TRIPOS>MOLECULE
*****
 32 36 0 0 0
SMALL
GASTEIGER

@<TRIPOS>ATOM
      1 C         142.6759  140.2402  162.5307 C.ar    1  UNL1       -0.0002
      2 C         143.9280  140.2011  161.7058 C.ar    1  UNL1        0.0001
      3 C         143.8747  139.7274  160.2836 C.ar    1  UNL1        0.0042
      4 C         142.5692  139.2927  159.6863 C.ar    1  UNL1        0.0497
      5 C         141.3170  139.3318  160.5112 C.ar    1  UNL1       -0.0161
      6 C         141.3704  139.8055  161.9334 C.ar    1  UNL1       -0.0041
      7 C         140.0115  138.8971  159.9139 C.3     1  UNL1        0.0480
      8 C         139.9582  138.4234  158.4917 C.3     1  UNL1        0.0984
      9 N         141.2104  138.3843  157.6667 N.am    1  UNL1       -0.2743
     10 C         142.5159  138.8189  158.2640 C.2     1  UNL1        0.2488
     11 O         143.7681  138.7798  157.4391 O.2     1  UNL1       -0.2699
     12 C         142.8357  141.6615  166.7974 C.ar    1  UNL1        0.0810
     13 C         142.6936  142.6535  165.6812 C.ar    1  UNL1        0.0068
     14 C         142.6403  142.1797  164.2590 C.ar    1  UNL1        0.0003
     15 C         142.7291  140.7140  163.9529 C.ar    1  UNL1        0.0022
     16 C         142.8713  139.7220  165.0691 C.ar    1  UNL1        0.0298
     17 C         142.9246  140.1958  166.4913 C.ar    1  UNL1        0.1445
     18 F         143.0667  139.2038  167.6075 F       1  UNL1       -0.2040
     19 O         144.1288  142.7973  168.7436 O.2     1  UNL1       -0.2698
     20 C         142.8890  142.1353  168.2196 C.2     1  UNL1        0.2512
     21 N         141.7024  141.9472  169.1177 N.am    1  UNL1       -0.2760
     22 C         141.6090  142.3671  170.5547 C.3     1  UNL1        0.0938
     23 C         140.2498  141.9855  171.0616 C.3     1  UNL1        0.0233
     24 C         139.5032  141.3298  169.9379 C.3     1  UNL1        0.0233
     25 C         140.4010  141.3061  168.7365 C.3     1  UNL1        0.0938
     26 C         141.1571  137.9105  156.2446 C.3     1  UNL1        0.1110
     27 C         140.7639  136.4954  155.9397 C.3     1  UNL1        0.0939
     28 N         141.7998  135.4106  155.9490 N.3     1  UNL1       -0.2712
     29 C         141.7897  134.1747  155.0991 C.3     1  UNL1        0.0722
     30 C         143.0113  133.3714  155.4347 C.3     1  UNL1        0.0188
     31 C         143.7763  134.1109  156.4921 C.3     1  UNL1        0.0188
     32 C         143.0275  135.3712  156.8100 C.3     1  UNL1        0.0722
@<TRIPOS>BOND
     1    19    20    2
     2    20    12    1
     3    12    13   ar
     4    13    14   ar
     5    14    15   ar
     6    15     1    1
     7     1     2   ar
     8     2     3   ar
     9     3     4   ar
    10     4     5   ar
    11     5     6   ar
    12     5     7    1
    13     7     8    1
    14     8     9    1
    15     9    26    1
    16    26    27    1
    17    27    28    1
    18    28    29    1
    19    29    30    1
    20    30    31    1
    21    31    32    1
    22     9    10   am
    23    10    11    2
    24    15    16   ar
    25    16    17   ar
    26    17    18    1
    27    20    21   am
    28    21    22    1
    29    22    23    1
    30    23    24    1
    31    24    25    1
    32    17    12   ar
    33    25    21    1
    34     6     1   ar
    35    32    28    1
    36    10     4    1
@<TRIPOS>MOLECULE
*****
 32 36 0 0 0
SMALL
GASTEIGER

@<TRIPOS>ATOM
      1 C         138.8071  139.7225  161.0804 C.ar    1  UNL1       -0.0002
      2 C         139.3362  138.5758  160.2712 C.ar    1  UNL1        0.0001
      3 C         139.4619  138.7037  158.7820 C.ar    1  UNL1        0.0042
      4 C         139.0583  139.9784  158.1020 C.ar    1  UNL1        0.0497
      5 C         138.5292  141.1251  158.9112 C.ar    1  UNL1       -0.0161
      6 C         138.4035  140.9972  160.4004 C.ar    1  UNL1       -0.0041
      7 C         138.1256  142.3998  158.2313 C.3     1  UNL1        0.0480
      8 C         138.2512  142.5277  156.7420 C.3     1  UNL1        0.0984
      9 N         138.7804  141.3809  155.9327 N.am    1  UNL1       -0.2743
     10 C         139.1840  140.1063  156.6127 C.2     1  UNL1        0.2488
     11 O         139.7131  138.9595  155.8035 O.2     1  UNL1       -0.2699
     12 C         138.4301  139.3389  165.5482 C.ar    1  UNL1        0.0810
     13 C         138.0795  140.6323  164.8742 C.ar    1  UNL1        0.0068
     14 C         138.2051  140.7602  163.3850 C.ar    1  UNL1        0.0003
     15 C         138.6814  139.5946  162.5697 C.ar    1  UNL1        0.0022
     16 C         139.0321  138.3013  163.2437 C.ar    1  UNL1        0.0298
     17 C         138.9064  138.1734  164.7330 C.ar    1  UNL1        0.1445
     18 F         139.2571  136.8801  165.4069 F       1  UNL1       -0.2040
     19 O         137.3471  138.2182  167.6269 O.2     1  UNL1       -0.2698
     20 C         138.3045  139.2111  167.0375 C.2     1  UNL1        0.2512
     21 N         139.1363  140.0762  167.9373 N.am    1  UNL1       -0.2760
     22 C         139.1193  140.0612  169.4371 C.3     1  UNL1        0.0938
     23 C         140.1036  141.0839  169.9220 C.3     1  UNL1        0.0233
     24 C         140.7289  141.7310  168.7219 C.3     1  UNL1        0.0233
     25 C         140.1311  141.1082  167.4953 C.3     1  UNL1        0.0938
     26 C         138.9060  141.5089  154.4435 C.3     1  UNL1        0.1110
     27 C         137.7789  141.0719  153.5555 C.3     1  UNL1        0.0939
     28 N         136.4296  140.7826  154.1436 N.3     1  UNL1       -0.2712
     29 C         135.3325  141.7809  154.3664 C.3     1  UNL1        0.0722
     30 C         134.1654  141.0595  154.9727 C.3     1  UNL1        0.0188
     31 C         134.5413  139.6152  155.1244 C.3     1  UNL1        0.0188
     32 C         135.9406  139.4441  154.6120 C.3     1  UNL1        0.0722
@<TRIPOS>BOND
     1    19    20    2
     2    20    12    1
     3    12    13   ar
     4    13    14   ar
     5    14    15   ar
     6    15     1    1
     7     1     2   ar
     8     2     3   ar
     9     3     4   ar
    10     4     5   ar
    11     5     6   ar
    12     5     7    1
    13     7     8    1
    14     8     9    1
    15     9    26    1
    16    26    27    1
    17    27    28    1
    18    28    29    1
    19    29    30    1
    20    30    31    1
    21    31    32    1
    22     9    10   am
    23    10    11    2
    24    15    16   ar
    25    16    17   ar
    26    17    18    1
    27    20    21   am
    28    21    22    1
    29    22    23    1
    30    23    24    1
    31    24    25    1
    32    17    12   ar
    33    25    21    1
    34     6     1   ar
    35    32    28    1
    36    10     4    1
@<TRIPOS>MOLECULE
*****
 32 36 0 0 0
SMALL
GASTEIGER

@<TRIPOS>ATOM
      1 C         142.0557  140.1651  162.3269 C.ar    1  UNL1       -0.0002
      2 C         141.8864  138.9530  161.4597 C.ar    1  UNL1        0.0001
      3 C         142.5019  138.9173  160.0923 C.ar    1  UNL1        0.0042
      4 C         143.2868  140.0937  159.5921 C.ar    1  UNL1        0.0497
      5 C         143.4561  141.3058  160.4593 C.ar    1  UNL1       -0.0161
      6 C         142.8406  141.3415  161.8267 C.ar    1  UNL1       -0.0041
      7 C         144.2409  142.4822  159.9592 C.3     1  UNL1        0.0480
      8 C         144.8565  142.4464  158.5918 C.3     1  UNL1        0.0984
      9 N         144.6871  141.2343  157.7245 N.am    1  UNL1       -0.2743
     10 C         143.9023  140.0579  158.2246 C.2     1  UNL1        0.2488
     11 O         143.7330  138.8458  157.3574 O.2     1  UNL1       -0.2699
     12 C         140.2091  140.2724  166.4293 C.ar    1  UNL1        0.0810
     13 C         139.4514  140.8095  165.2513 C.ar    1  UNL1        0.0068
     14 C         140.0669  140.7737  163.8839 C.ar    1  UNL1        0.0003
     15 C         141.4402  140.2009  163.6944 C.ar    1  UNL1        0.0022
     16 C         142.1980  139.6639  164.8722 C.ar    1  UNL1        0.0298
     17 C         141.5824  139.6996  166.2397 C.ar    1  UNL1        0.1445
     18 F         142.3402  139.1626  167.4175 F       1  UNL1       -0.2040
     19 O         138.6621  139.2148  168.2287 O.2     1  UNL1       -0.2698
     20 C         139.5936  140.3082  167.7966 C.2     1  UNL1        0.2512
     21 N         139.9096  141.4375  168.7320 N.am    1  UNL1       -0.2760
     22 C         139.3727  141.6072  170.1223 C.3     1  UNL1        0.0938
     23 C         139.9492  142.8699  170.6909 C.3     1  UNL1        0.0233
     24 C         140.8425  143.4805  169.6519 C.3     1  UNL1        0.0233
     25 C         140.8179  142.5952  168.4413 C.3     1  UNL1        0.0938
     26 C         145.3027  141.1986  156.3571 C.3     1  UNL1        0.1110
     27 C         145.6404  142.4793  155.6529 C.3     1  UNL1        0.0939
     28 N         146.9505  142.6178  154.9356 N.3     1  UNL1       -0.2712
     29 C         148.1655  141.7639  155.1462 C.3     1  UNL1        0.0722
     30 C         149.2415  142.2529  154.2225 C.3     1  UNL1        0.0188
     31 C         148.6914  143.4091  153.4410 C.3     1  UNL1        0.0188
     32 C         147.2754  143.6346  153.8817 C.3     1  UNL1        0.0722
@<TRIPOS>BOND
     1    19    20    2
     2    20    12    1
     3    12    13   ar
     4    13    14   ar
     5    14    15   ar
     6    15     1    1
     7     1     2   ar
     8     2     3   ar
     9     3     4   ar
    10     4     5   ar
    11     5     6   ar
    12     5     7    1
    13     7     8    1
    14     8     9    1
    15     9    26    1
    16    26    27    1
    17    27    28    1
    18    28    29    1
    19    29    30    1
    20    30    31    1
    21    31    32    1
    22     9    10   am
    23    10    11    2
    24    15    16   ar
    25    16    17   ar
    26    17    18    1
    27    20    21   am
    28    21    22    1
    29    22    23    1
    30    23    24    1
    31    24    25    1
    32    17    12   ar
    33    25    21    1
    34     6     1   ar
    35    32    28    1
    36    10     4    1
@<TRIPOS>MOLECULE
*****
 32 36 0 0 0
SMALL
GASTEIGER

@<TRIPOS>ATOM
      1 C         140.3266  138.6619  162.1407 C.ar    1  UNL1       -0.0002
      2 C         139.2425  137.7802  162.6858 C.ar    1  UNL1        0.0001
      3 C         138.8239  137.9062  164.1206 C.ar    1  UNL1        0.0042
      4 C         139.4895  138.9138  165.0104 C.ar    1  UNL1        0.0497
      5 C         140.5736  139.7955  164.4653 C.ar    1  UNL1       -0.0161
      6 C         140.9922  139.6696  163.0304 C.ar    1  UNL1       -0.0041
      7 C         141.2392  140.8032  165.3550 C.3     1  UNL1        0.0480
      8 C         140.8206  140.9291  166.7899 C.3     1  UNL1        0.0984
      9 N         139.7364  140.0474  167.3351 N.am    1  UNL1       -0.2743
     10 C         139.0708  139.0398  166.4453 C.2     1  UNL1        0.2488
     11 O         137.9867  138.1581  166.9904 O.2     1  UNL1       -0.2699
     12 C         141.5825  138.2842  157.8359 C.ar    1  UNL1        0.0810
     13 C         142.5985  138.1357  158.9295 C.ar    1  UNL1        0.0068
     14 C         142.1799  138.2616  160.3643 C.ar    1  UNL1        0.0003
     15 C         140.7452  138.5360  160.7057 C.ar    1  UNL1        0.0022
     16 C         139.7292  138.6844  159.6123 C.ar    1  UNL1        0.0298
     17 C         140.1479  138.5585  158.1773 C.ar    1  UNL1        0.1445
     18 F         139.1319  138.7070  157.0839 F       1  UNL1       -0.2040
     19 O         142.1706  139.3876  155.5586 O.2     1  UNL1       -0.2698
     20 C         142.0012  138.1582  156.4011 C.2     1  UNL1        0.2512
     21 N         142.2503  136.8029  155.8088 N.am    1  UNL1       -0.2760
     22 C         142.6715  136.5216  154.3969 C.3     1  UNL1        0.0938
     23 C         142.8036  135.0358  154.2398 C.3     1  UNL1        0.0233
     24 C         142.4640  134.3986  155.5547 C.3     1  UNL1        0.0233
     25 C         142.1221  135.4908  156.5243 C.3     1  UNL1        0.0938
     26 C         139.3179  140.1734  168.7699 C.3     1  UNL1        0.1110
     27 C         140.3366  140.0404  169.8629 C.3     1  UNL1        0.0939
     28 N         141.4630  141.0261  169.9622 N.3     1  UNL1       -0.2712
     29 C         142.9123  140.7376  169.7047 C.3     1  UNL1        0.0722
     30 C         143.6828  142.0065  169.9197 C.3     1  UNL1        0.0188
     31 C         142.7097  143.0792  170.3101 C.3     1  UNL1        0.0188
     32 C         141.3378  142.4733  170.3363 C.3     1  UNL1        0.0722
@<TRIPOS>BOND
     1    19    20    2
     2    20    12    1
     3    12    13   ar
     4    13    14   ar
     5    14    15   ar
     6    15     1    1
     7     1     2   ar
     8     2     3   ar
     9     3     4   ar
    10     4     5   ar
    11     5     6   ar
    12     5     7    1
    13     7     8    1
    14     8     9    1
    15     9    26    1
    16    26    27    1
    17    27    28    1
    18    28    29    1
    19    29    30    1
    20    30    31    1
    21    31    32    1
    22     9    10   am
    23    10    11    2
    24    15    16   ar
    25    16    17   ar
    26    17    18    1
    27    20    21   am
    28    21    22    1
    29    22    23    1
    30    23    24    1
    31    24    25    1
    32    17    12   ar
    33    25    21    1
    34     6     1   ar
    35    32    28    1
    36    10     4    1
@<TRIPOS>MOLECULE
*****
 32 36 0 0 0
SMALL
GASTEIGER

@<TRIPOS>ATOM
      1 C         142.4128  142.5129  162.2284 C.ar    1  UNL1       -0.0002
      2 C         143.3957  141.9280  161.2579 C.ar    1  UNL1        0.0001
      3 C         143.4180  142.4027  159.8352 C.ar    1  UNL1        0.0042
      4 C         142.4574  143.4623  159.3829 C.ar    1  UNL1        0.0497
      5 C         141.4746  144.0472  160.3534 C.ar    1  UNL1       -0.0161
      6 C         141.4522  143.5725  161.7761 C.ar    1  UNL1       -0.0041
      7 C         140.5140  145.1068  159.9011 C.3     1  UNL1        0.0480
      8 C         140.5363  145.5815  158.4783 C.3     1  UNL1        0.0984
      9 N         141.5192  144.9965  157.5078 N.am    1  UNL1       -0.2743
     10 C         142.4798  143.9369  157.9601 C.2     1  UNL1        0.2488
     11 O         143.4626  143.3520  156.9897 O.2     1  UNL1       -0.2699
     12 C         142.3458  141.0890  166.4967 C.ar    1  UNL1        0.0810
     13 C         143.3448  142.1218  166.0661 C.ar    1  UNL1        0.0068
     14 C         143.3672  142.5964  164.6434 C.ar    1  UNL1        0.0003
     15 C         142.3905  142.0383  163.6512 C.ar    1  UNL1        0.0022
     16 C         141.3914  141.0055  164.0817 C.ar    1  UNL1        0.0298
     17 C         141.3691  140.5309  165.5045 C.ar    1  UNL1        0.1445
     18 F         140.3701  139.4982  165.9350 F       1  UNL1       -0.2040
     19 O         143.0504  139.3597  168.3030 O.2     1  UNL1       -0.2698
     20 C         142.3235  140.6145  167.9194 C.2     1  UNL1        0.2512
     21 N         141.5743  141.3946  168.9586 N.am    1  UNL1       -0.2760
     22 C         141.4630  141.0455  170.4131 C.3     1  UNL1        0.0938
     23 C         140.6247  142.0960  171.0792 C.3     1  UNL1        0.0233
     24 C         140.2179  143.0945  170.0363 C.3     1  UNL1        0.0233
     25 C         140.8047  142.6610  168.7257 C.3     1  UNL1        0.0938
     26 C         141.5415  145.4712  156.0851 C.3     1  UNL1        0.1110
     27 C         140.2555  145.7782  155.3767 C.3     1  UNL1        0.0939
     28 N         139.8323  147.2031  155.1746 N.3     1  UNL1       -0.2712
     29 C         140.2887  148.1102  154.0706 C.3     1  UNL1        0.0722
     30 C         139.6168  149.4387  154.2547 C.3     1  UNL1        0.0188
     31 C         138.7452  149.3525  155.4725 C.3     1  UNL1        0.0188
     32 C         138.8784  147.9708  156.0410 C.3     1  UNL1        0.0722
@<TRIPOS>BOND
     1    19    20    2
     2    20    12    1
     3    12    13   ar
     4    13    14   ar
     5    14    15   ar
     6    15     1    1
     7     1     2   ar
     8     2     3   ar
     9     3     4   ar
    10     4     5   ar
    11     5     6   ar
    12     5     7    1
    13     7     8    1
    14     8     9    1
    15     9    26    1
    16    26    27    1
    17    27    28    1
    18    28    29    1
    19    29    30    1
    20    30    31    1
    21    31    32    1
    22     9    10   am
    23    10    11    2
    24    15    16   ar
    25    16    17   ar
    26    17    18    1
    27    20    21   am
    28    21    22    1
    29    22    23    1
    30    23    24    1
    31    24    25    1
    32    17    12   ar
    33    25    21    1
    34     6     1   ar
    35    32    28    1
    36    10     4    1
@<TRIPOS>MOLECULE
*****
 32 36 0 0 0
SMALL
GASTEIGER

@<TRIPOS>ATOM
      1 C         140.1663  143.2625  162.1843 C.ar    1  UNL1       -0.0002
      2 C         140.4469  144.2869  163.2435 C.ar    1  UNL1        0.0001
      3 C         140.3775  143.9058  164.6925 C.ar    1  UNL1        0.0042
      4 C         140.0275  142.5003  165.0825 C.ar    1  UNL1        0.0497
      5 C         139.7470  141.4759  164.0234 C.ar    1  UNL1       -0.0161
      6 C         139.8164  141.8570  162.5743 C.ar    1  UNL1       -0.0041
      7 C         139.3970  140.0704  164.4133 C.3     1  UNL1        0.0480
      8 C         139.3276  139.6893  165.8624 C.3     1  UNL1        0.0984
      9 N         139.6082  140.7137  166.9217 N.am    1  UNL1       -0.2743
     10 C         139.9581  142.1192  166.5317 C.2     1  UNL1        0.2488
     11 O         140.2387  143.1437  167.5908 O.2     1  UNL1       -0.2699
     12 C         140.3744  144.4056  157.8368 C.ar    1  UNL1        0.0810
     13 C         139.4085  143.3511  158.2897 C.ar    1  UNL1        0.0068
     14 C         139.3391  142.9701  159.7388 C.ar    1  UNL1        0.0003
     15 C         140.2357  143.6435  160.7351 C.ar    1  UNL1        0.0022
     16 C         141.2016  144.6980  160.2823 C.ar    1  UNL1        0.0298
     17 C         141.2710  145.0790  158.8332 C.ar    1  UNL1        0.1445
     18 F         142.2370  146.1335  158.3803 F       1  UNL1       -0.2040
     19 O         141.0395  143.8377  155.3904 O.2     1  UNL1       -0.2698
     20 C         140.4438  144.7866  156.3877 C.2     1  UNL1        0.2512
     21 N         139.9175  146.1166  155.9360 N.am    1  UNL1       -0.2760
     22 C         139.9187  146.6330  154.5277 C.3     1  UNL1        0.0938
     23 C         139.2995  147.9992  154.5345 C.3     1  UNL1        0.0233
     24 C         138.9156  148.3272  155.9470 C.3     1  UNL1        0.0233
     25 C         139.2975  147.1636  156.8131 C.3     1  UNL1        0.0938
     26 C         139.5388  140.3326  168.3707 C.3     1  UNL1        0.1110
     27 C         140.7909  139.9653  169.1104 C.3     1  UNL1        0.0939
     28 N         141.7730  141.0308  169.4981 N.3     1  UNL1       -0.2712
     29 C         141.6107  142.0135  170.6197 C.3     1  UNL1        0.0722
     30 C         142.8272  142.8908  170.6469 C.3     1  UNL1        0.0188
     31 C         143.7413  142.4502  169.5422 C.3     1  UNL1        0.0188
     32 C         143.0897  141.3007  168.8321 C.3     1  UNL1        0.0722
@<TRIPOS>BOND
     1    19    20    2
     2    20    12    1
     3    12    13   ar
     4    13    14   ar
     5    14    15   ar
     6    15     1    1
     7     1     2   ar
     8     2     3   ar
     9     3     4   ar
    10     4     5   ar
    11     5     6   ar
    12     5     7    1
    13     7     8    1
    14     8     9    1
    15     9    26    1
    16    26    27    1
    17    27    28    1
    18    28    29    1
    19    29    30    1
    20    30    31    1
    21    31    32    1
    22     9    10   am
    23    10    11    2
    24    15    16   ar
    25    16    17   ar
    26    17    18    1
    27    20    21   am
    28    21    22    1
    29    22    23    1
    30    23    24    1
    31    24    25    1
    32    17    12   ar
    33    25    21    1
    34     6     1   ar
    35    32    28    1
    36    10     4    1
