@<TRIPOS>MOLECULE
*****
 29 32 0 0 0
SMALL
GASTEIGER

@<TRIPOS>ATOM
      1 O         140.0395  141.4706  162.0329 O.3     1  UNL1       -0.3470
      2 C         141.4288  141.0774  162.4392 C.3     1  UNL1        0.1467
      3 C         142.6071  137.5655  158.0665 C.3     1  UNL1        0.0896
      4 N         142.4133  138.3101  159.3542 N.3     1  UNL1       -0.2715
      5 C         142.9207  137.7286  160.6404 C.3     1  UNL1        0.0725
      6 C         142.7269  138.4731  161.9281 C.3     1  UNL1        0.0238
      7 C         142.0258  139.7991  161.9295 C.3     1  UNL1        0.0489
      8 C         141.5184  140.3806  160.6433 C.3     1  UNL1        0.0238
      9 C         141.7122  139.6361  159.3556 C.3     1  UNL1        0.0725
     10 C         142.3258  139.6615  163.3928 C.ar    1  UNL1       -0.0204
     11 C         141.9818  138.3914  164.1128 C.ar    1  UNL1       -0.0042
     12 C         142.2818  138.2538  165.5760 C.ar    1  UNL1       -0.0003
     13 C         142.9259  139.3864  166.3192 C.ar    1  UNL1       -0.0000
     14 C         143.2700  140.6565  165.5993 C.ar    1  UNL1       -0.0003
     15 C         142.9700  140.7941  164.1360 C.ar    1  UNL1       -0.0042
     16 C         139.0197  141.8096  163.0795 C.3     1  UNL1        0.1874
     17 C         139.1304  141.2186  164.4537 C.ar    1  UNL1        0.0883
     18 C         138.5564  139.8616  164.7350 C.ar    1  UNL1        0.0211
     19 C         138.6672  139.2707  166.1093 C.ar    1  UNL1        0.0738
     20 C         139.3518  140.0367  167.2021 C.ar    1  UNL1        0.0186
     21 C         139.9258  141.3938  166.9208 C.ar    1  UNL1        0.0583
     22 N         139.8151  141.9847  165.5466 N.ar    1  UNL1       -0.2515
     23 C         138.0933  137.9136  166.3907 C.3     1  UNL1        0.4187
     24 F         137.5194  136.5567  166.6721 F       1  UNL1       -0.1659
     25 F         139.0373  137.3079  165.3947 F       1  UNL1       -0.1659
     26 F         137.1493  138.5194  167.3866 F       1  UNL1       -0.1659
     27 C         140.6104  142.1598  168.0137 C.3     1  UNL1        0.0403
     28 C         140.5496  143.1397  169.1478 C.3     1  UNL1        0.0063
     29 C         141.8568  142.5068  168.7726 C.3     1  UNL1        0.0063
@<TRIPOS>BOND
     1     3     4    1
     2     4     5    1
     3     5     6    1
     4     6     7    1
     5     7     2    1
     6     2     1    1
     7     1    16    1
     8    16    17    1
     9    17    18   ar
    10    18    19   ar
    11    19    23    1
    12    23    24    1
    13    23    25    1
    14    23    26    1
    15    19    20   ar
    16    20    21   ar
    17    21    27    1
    18    27    28    1
    19    28    29    1
    20    21    22   ar
    21     7    10    1
    22    10    11   ar
    23    11    12   ar
    24    12    13   ar
    25    13    14   ar
    26    14    15   ar
    27     7     8    1
    28     8     9    1
    29     9     4    1
    30    22    17   ar
    31    15    10   ar
    32    29    27    1
@<TRIPOS>MOLECULE
*****
 29 32 0 0 0
SMALL
GASTEIGER

@<TRIPOS>ATOM
      1 O         143.2319  138.6050  164.2287 O.3     1  UNL1       -0.3470
      2 C         143.2440  139.4437  165.4722 C.3     1  UNL1        0.1467
      3 C         144.2351  144.3974  162.7665 C.3     1  UNL1        0.0896
      4 N         143.8407  143.2411  163.6368 N.3     1  UNL1       -0.2715
      5 C         142.9780  143.4697  164.8423 C.3     1  UNL1        0.0725
      6 C         142.5837  142.3133  165.7126 C.3     1  UNL1        0.0238
      7 C         143.0521  140.9284  165.3774 C.3     1  UNL1        0.0489
      8 C         143.9148  140.6998  164.1718 C.3     1  UNL1        0.0238
      9 C         144.3092  141.8561  163.3015 C.3     1  UNL1        0.0725
     10 C         142.2560  140.6414  166.6159 C.ar    1  UNL1       -0.0204
     11 C         142.7715  139.6626  167.6288 C.ar    1  UNL1       -0.0042
     12 C         141.9755  139.3756  168.8673 C.ar    1  UNL1       -0.0003
     13 C         140.6638  140.0675  169.0928 C.ar    1  UNL1       -0.0000
     14 C         140.1482  141.0463  168.0799 C.ar    1  UNL1       -0.0003
     15 C         140.9443  141.3333  166.8414 C.ar    1  UNL1       -0.0042
     16 C         141.9305  138.1098  163.6708 C.3     1  UNL1        0.1874
     17 C         140.6372  138.7065  164.1413 C.ar    1  UNL1        0.0883
     18 C         139.8300  138.0102  165.1966 C.ar    1  UNL1        0.0211
     19 C         138.5368  138.6071  165.6671 C.ar    1  UNL1        0.0738
     20 C         138.0508  139.9001  165.0824 C.ar    1  UNL1        0.0186
     21 C         138.8580  140.5964  164.0271 C.ar    1  UNL1        0.0583
     22 N         140.1512  139.9996  163.5565 N.ar    1  UNL1       -0.2515
     23 C         137.7294  137.9108  166.7224 C.3     1  UNL1        0.4187
     24 F         136.9221  137.2147  167.7776 F       1  UNL1       -0.1659
     25 F         137.4842  139.2254  167.4020 F       1  UNL1       -0.1659
     26 F         137.9747  136.5963  166.0427 F       1  UNL1       -0.1659
     27 C         138.3720  141.8893  163.4424 C.3     1  UNL1        0.0403
     28 C         138.0123  143.3362  163.6083 C.3     1  UNL1        0.0063
     29 C         137.8899  142.6823  162.2639 C.3     1  UNL1        0.0063
@<TRIPOS>BOND
     1     3     4    1
     2     4     5    1
     3     5     6    1
     4     6     7    1
     5     7     2    1
     6     2     1    1
     7     1    16    1
     8    16    17    1
     9    17    18   ar
    10    18    19   ar
    11    19    23    1
    12    23    24    1
    13    23    25    1
    14    23    26    1
    15    19    20   ar
    16    20    21   ar
    17    21    27    1
    18    27    28    1
    19    28    29    1
    20    21    22   ar
    21     7    10    1
    22    10    11   ar
    23    11    12   ar
    24    12    13   ar
    25    13    14   ar
    26    14    15   ar
    27     7     8    1
    28     8     9    1
    29     9     4    1
    30    22    17   ar
    31    15    10   ar
    32    29    27    1
@<TRIPOS>MOLECULE
*****
 29 32 0 0 0
SMALL
GASTEIGER

@<TRIPOS>ATOM
      1 O         141.7507  137.9411  162.4702 O.3     1  UNL1       -0.3470
      2 C         140.2976  137.7249  162.7727 C.3     1  UNL1        0.1467
      3 C         138.0257  140.4796  158.2903 C.3     1  UNL1        0.0896
      4 N         138.4397  139.8739  159.5986 N.3     1  UNL1       -0.2715
      5 C         137.6869  140.2091  160.8519 C.3     1  UNL1        0.0725
      6 C         138.1010  139.6034  162.1602 C.3     1  UNL1        0.0238
      7 C         139.2679  138.6625  162.2152 C.3     1  UNL1        0.0489
      8 C         140.0207  138.3274  160.9619 C.3     1  UNL1        0.0238
      9 C         139.6066  138.9330  159.6536 C.3     1  UNL1        0.0725
     10 C         138.8726  138.6721  163.6622 C.ar    1  UNL1       -0.0204
     11 C         138.8773  137.3953  164.4494 C.ar    1  UNL1       -0.0042
     12 C         138.4821  137.4049  165.8964 C.ar    1  UNL1       -0.0003
     13 C         138.0822  138.6913  166.5561 C.ar    1  UNL1       -0.0000
     14 C         138.0774  139.9681  165.7689 C.ar    1  UNL1       -0.0003
     15 C         138.4727  139.9585  164.3219 C.ar    1  UNL1       -0.0042
     16 C         142.6788  138.4160  163.5488 C.3     1  UNL1        0.1874
     17 C         142.2271  139.4691  164.5168 C.ar    1  UNL1        0.0883
     18 C         142.0144  139.1195  165.9600 C.ar    1  UNL1        0.0211
     19 C         141.5627  140.1727  166.9279 C.ar    1  UNL1        0.0738
     20 C         141.3237  141.5752  166.4528 C.ar    1  UNL1        0.0186
     21 C         141.5364  141.9247  165.0096 C.ar    1  UNL1        0.0583
     22 N         141.9881  140.8716  164.0416 N.ar    1  UNL1       -0.2515
     23 C         141.3500  139.8232  168.3711 C.3     1  UNL1        0.4187
     24 F         141.1374  139.4738  169.8142 F       1  UNL1       -0.1659
     25 F         142.6002  138.9944  168.3546 F       1  UNL1       -0.1659
     26 F         140.0999  140.6520  168.3875 F       1  UNL1       -0.1659
     27 C         141.2974  143.3272  164.5345 C.3     1  UNL1        0.0403
     28 C         141.8298  144.6414  164.0451 C.3     1  UNL1        0.0063
     29 C         140.3512  144.4423  164.2011 C.3     1  UNL1        0.0063
@<TRIPOS>BOND
     1     3     4    1
     2     4     5    1
     3     5     6    1
     4     6     7    1
     5     7     2    1
     6     2     1    1
     7     1    16    1
     8    16    17    1
     9    17    18   ar
    10    18    19   ar
    11    19    23    1
    12    23    24    1
    13    23    25    1
    14    23    26    1
    15    19    20   ar
    16    20    21   ar
    17    21    27    1
    18    27    28    1
    19    28    29    1
    20    21    22   ar
    21     7    10    1
    22    10    11   ar
    23    11    12   ar
    24    12    13   ar
    25    13    14   ar
    26    14    15   ar
    27     7     8    1
    28     8     9    1
    29     9     4    1
    30    22    17   ar
    31    15    10   ar
    32    29    27    1
@<TRIPOS>MOLECULE
*****
 29 32 0 0 0
SMALL
GASTEIGER

@<TRIPOS>ATOM
      1 O         143.1378  138.4078  164.2343 O.3     1  UNL1       -0.3470
      2 C         141.7318  137.9199  164.0470 C.3     1  UNL1        0.1467
      3 C         141.4046  138.4682  158.3519 C.3     1  UNL1        0.0896
      4 N         141.2549  138.4185  159.8436 N.3     1  UNL1       -0.2715
      5 C         139.9802  138.8801  160.4853 C.3     1  UNL1        0.0725
      6 C         139.8305  138.8304  161.9770 C.3     1  UNL1        0.0238
      7 C         140.9557  138.3191  162.8270 C.3     1  UNL1        0.0489
      8 C         142.2305  137.8575  162.1853 C.3     1  UNL1        0.0238
      9 C         142.3801  137.9072  160.6936 C.3     1  UNL1        0.0725
     10 C         139.9504  138.6421  163.8924 C.ar    1  UNL1       -0.0204
     11 C         139.3463  140.0132  163.9626 C.ar    1  UNL1       -0.0042
     12 C         138.3410  140.3363  165.0280 C.ar    1  UNL1       -0.0003
     13 C         137.9399  139.2881  166.0231 C.ar    1  UNL1       -0.0000
     14 C         138.5439  137.9169  165.9530 C.ar    1  UNL1       -0.0003
     15 C         139.5493  137.5939  164.8876 C.ar    1  UNL1       -0.0042
     16 C         143.4808  139.2735  165.4104 C.3     1  UNL1        0.1874
     17 C         142.5633  140.3899  165.8128 C.ar    1  UNL1        0.0883
     18 C         141.7447  140.2737  167.0644 C.ar    1  UNL1        0.0211
     19 C         140.8273  141.3901  167.4668 C.ar    1  UNL1        0.0738
     20 C         140.7283  142.6226  166.6177 C.ar    1  UNL1        0.0186
     21 C         141.5469  142.7388  165.3660 C.ar    1  UNL1        0.0583
     22 N         142.4644  141.6224  164.9636 N.ar    1  UNL1       -0.2515
     23 C         140.0087  141.2740  168.7184 C.3     1  UNL1        0.4187
     24 F         139.1901  141.1578  169.9700 F       1  UNL1       -0.1659
     25 F         139.9602  139.7844  168.5484 F       1  UNL1       -0.1659
     26 F         140.0573  142.7635  168.8883 F       1  UNL1       -0.1659
     27 C         141.4480  143.9713  164.5169 C.3     1  UNL1        0.0403
     28 C         142.1040  145.1365  163.8370 C.3     1  UNL1        0.0063
     29 C         140.6209  144.9410  163.7260 C.3     1  UNL1        0.0063
@<TRIPOS>BOND
     1     3     4    1
     2     4     5    1
     3     5     6    1
     4     6     7    1
     5     7     2    1
     6     2     1    1
     7     1    16    1
     8    16    17    1
     9    17    18   ar
    10    18    19   ar
    11    19    23    1
    12    23    24    1
    13    23    25    1
    14    23    26    1
    15    19    20   ar
    16    20    21   ar
    17    21    27    1
    18    27    28    1
    19    28    29    1
    20    21    22   ar
    21     7    10    1
    22    10    11   ar
    23    11    12   ar
    24    12    13   ar
    25    13    14   ar
    26    14    15   ar
    27     7     8    1
    28     8     9    1
    29     9     4    1
    30    22    17   ar
    31    15    10   ar
    32    29    27    1
@<TRIPOS>MOLECULE
*****
 29 32 0 0 0
SMALL
GASTEIGER

@<TRIPOS>ATOM
      1 O         143.2368  138.8059  164.0099 O.3     1  UNL1       -0.3470
      2 C         141.8700  138.2049  163.8662 C.3     1  UNL1        0.1467
      3 C         141.4952  138.2478  158.1478 C.3     1  UNL1        0.0896
      4 N         141.3530  138.3163  159.6395 N.3     1  UNL1       -0.2715
      5 C         140.0552  138.7558  160.2497 C.3     1  UNL1        0.0725
      6 C         139.9129  138.8243  161.7414 C.3     1  UNL1        0.0238
      7 C         141.0685  138.4533  162.6228 C.3     1  UNL1        0.0489
      8 C         142.3663  138.0137  162.0126 C.3     1  UNL1        0.0238
      9 C         142.5085  137.9452  160.5209 C.3     1  UNL1        0.0725
     10 C         140.0490  138.8066  163.6649 C.ar    1  UNL1       -0.0204
     11 C         139.2114  140.0408  163.5066 C.ar    1  UNL1       -0.0042
     12 C         138.1920  140.3941  164.5486 C.ar    1  UNL1       -0.0003
     13 C         138.0100  139.5131  165.7489 C.ar    1  UNL1       -0.0000
     14 C         138.8476  138.2788  165.9072 C.ar    1  UNL1       -0.0003
     15 C         139.8671  137.9255  164.8652 C.ar    1  UNL1       -0.0042
     16 C         143.5457  139.6960  165.1771 C.3     1  UNL1        0.1874
     17 C         142.4643  140.5405  165.7832 C.ar    1  UNL1        0.0883
     18 C         142.0013  141.7830  165.0818 C.ar    1  UNL1        0.0211
     19 C         140.9198  142.6275  165.6880 C.ar    1  UNL1        0.0738
     20 C         140.3015  142.2295  166.9953 C.ar    1  UNL1        0.0186
     21 C         140.7645  140.9870  167.6966 C.ar    1  UNL1        0.0583
     22 N         141.8459  140.1425  167.0906 N.ar    1  UNL1       -0.2515
     23 C         140.4567  143.8700  164.9867 C.3     1  UNL1        0.4187
     24 F         139.9937  145.1125  164.2854 F       1  UNL1       -0.1659
     25 F         141.6515  143.8046  164.0820 F       1  UNL1       -0.1659
     26 F         139.2621  143.9353  165.8914 F       1  UNL1       -0.1659
     27 C         140.1461  140.5890  169.0040 C.3     1  UNL1        0.0403
     28 C         140.2888  140.0665  170.4028 C.3     1  UNL1        0.0063
     29 C         138.9326  140.4222  169.8697 C.3     1  UNL1        0.0063
@<TRIPOS>BOND
     1     3     4    1
     2     4     5    1
     3     5     6    1
     4     6     7    1
     5     7     2    1
     6     2     1    1
     7     1    16    1
     8    16    17    1
     9    17    18   ar
    10    18    19   ar
    11    19    23    1
    12    23    24    1
    13    23    25    1
    14    23    26    1
    15    19    20   ar
    16    20    21   ar
    17    21    27    1
    18    27    28    1
    19    28    29    1
    20    21    22   ar
    21     7    10    1
    22    10    11   ar
    23    11    12   ar
    24    12    13   ar
    25    13    14   ar
    26    14    15   ar
    27     7     8    1
    28     8     9    1
    29     9     4    1
    30    22    17   ar
    31    15    10   ar
    32    29    27    1
@<TRIPOS>MOLECULE
*****
 29 32 0 0 0
SMALL
GASTEIGER

@<TRIPOS>ATOM
      1 O         138.6066  138.0846  164.8100 O.3     1  UNL1       -0.3470
      2 C         140.0163  137.8861  164.3374 C.3     1  UNL1        0.1467
      3 C         139.3593  139.0676  158.7683 C.3     1  UNL1        0.0896
      4 N         139.7379  138.9041  160.2105 N.3     1  UNL1       -0.2715
      5 C         140.9628  139.5841  160.7462 C.3     1  UNL1        0.0725
      6 C         141.3414  139.4206  162.1884 C.3     1  UNL1        0.0238
      7 C         140.4950  138.5769  163.0949 C.3     1  UNL1        0.0489
      8 C         139.2701  137.8969  162.5593 C.3     1  UNL1        0.0238
      9 C         138.8915  138.0604  161.1171 C.3     1  UNL1        0.0725
     10 C         141.5537  139.0171  164.0621 C.ar    1  UNL1       -0.0204
     11 C         142.0850  138.0541  165.0820 C.ar    1  UNL1       -0.0042
     12 C         143.1437  138.4942  166.0492 C.ar    1  UNL1       -0.0003
     13 C         143.6711  139.8975  165.9964 C.ar    1  UNL1       -0.0000
     14 C         143.1398  140.8606  164.9765 C.ar    1  UNL1       -0.0003
     15 C         142.0811  140.4204  164.0093 C.ar    1  UNL1       -0.0042
     16 C         138.3269  138.9812  165.9796 C.3     1  UNL1        0.1874
     17 C         138.9708  140.3337  166.0586 C.ar    1  UNL1        0.0883
     18 C         138.6097  141.3956  165.0626 C.ar    1  UNL1        0.0211
     19 C         139.2535  142.7480  165.1416 C.ar    1  UNL1        0.0738
     20 C         140.2585  143.0387  166.2166 C.ar    1  UNL1        0.0186
     21 C         140.6196  141.9768  167.2126 C.ar    1  UNL1        0.0583
     22 N         139.9757  140.6243  167.1337 N.ar    1  UNL1       -0.2515
     23 C         138.8925  143.8100  164.1456 C.3     1  UNL1        0.4187
     24 F         138.5314  144.8719  163.1496 F       1  UNL1       -0.1659
     25 F         137.4652  143.7544  164.6038 F       1  UNL1       -0.1659
     26 F         140.3197  143.8655  163.6874 F       1  UNL1       -0.1659
     27 C         141.6245  142.2674  168.2876 C.3     1  UNL1        0.0403
     28 C         143.0202  142.1554  168.8257 C.3     1  UNL1        0.0063
     29 C         141.9696  142.8828  169.6113 C.3     1  UNL1        0.0063
@<TRIPOS>BOND
     1     3     4    1
     2     4     5    1
     3     5     6    1
     4     6     7    1
     5     7     2    1
     6     2     1    1
     7     1    16    1
     8    16    17    1
     9    17    18   ar
    10    18    19   ar
    11    19    23    1
    12    23    24    1
    13    23    25    1
    14    23    26    1
    15    19    20   ar
    16    20    21   ar
    17    21    27    1
    18    27    28    1
    19    28    29    1
    20    21    22   ar
    21     7    10    1
    22    10    11   ar
    23    11    12   ar
    24    12    13   ar
    25    13    14   ar
    26    14    15   ar
    27     7     8    1
    28     8     9    1
    29     9     4    1
    30    22    17   ar
    31    15    10   ar
    32    29    27    1
@<TRIPOS>MOLECULE
*****
 29 32 0 0 0
SMALL
GASTEIGER

@<TRIPOS>ATOM
      1 O         139.4471  144.9967  163.9851 O.3     1  UNL1       -0.3470
      2 C         140.9212  144.7824  163.8083 C.3     1  UNL1        0.1467
      3 C         141.0010  145.1768  158.0916 C.3     1  UNL1        0.0896
      4 N         141.1536  144.8918  159.5564 N.3     1  UNL1       -0.2715
      5 C         142.1116  143.8343  160.0188 C.3     1  UNL1        0.0725
      6 C         142.2642  143.5492  161.4836 C.3     1  UNL1        0.0238
      7 C         141.4587  144.3216  162.4859 C.3     1  UNL1        0.0489
      8 C         140.5007  145.3791  162.0234 C.3     1  UNL1        0.0238
      9 C         140.3482  145.6642  160.5587 C.3     1  UNL1        0.0725
     10 C         142.2301  143.4241  163.4076 C.ar    1  UNL1       -0.0204
     11 C         142.0877  141.9350  163.2973 C.ar    1  UNL1       -0.0042
     12 C         142.8589  141.0375  164.2190 C.ar    1  UNL1       -0.0003
     13 C         143.7727  141.6291  165.2510 C.ar    1  UNL1       -0.0000
     14 C         143.9152  143.1183  165.3613 C.ar    1  UNL1       -0.0003
     15 C         143.1438  144.0158  164.4396 C.ar    1  UNL1       -0.0042
     16 C         138.7047  144.2554  165.0571 C.3     1  UNL1        0.1874
     17 C         139.3385  143.0727  165.7276 C.ar    1  UNL1        0.0883
     18 C         138.9646  141.6824  165.3067 C.ar    1  UNL1        0.0211
     19 C         139.5985  140.4998  165.9772 C.ar    1  UNL1        0.0738
     20 C         140.6062  140.7074  167.0686 C.ar    1  UNL1        0.0186
     21 C         140.9802  142.0978  167.4896 C.ar    1  UNL1        0.0583
     22 N         140.3464  143.2804  166.8191 N.ar    1  UNL1       -0.2515
     23 C         139.2245  139.1094  165.5563 C.3     1  UNL1        0.4187
     24 F         138.8507  137.7191  165.1355 F       1  UNL1       -0.1659
     25 F         140.6743  138.7247  165.5395 F       1  UNL1       -0.1659
     26 F         137.7748  139.4942  165.5732 F       1  UNL1       -0.1659
     27 C         141.9880  142.3054  168.5810 C.3     1  UNL1        0.0403
     28 C         142.3139  142.7082  169.9888 C.3     1  UNL1        0.0063
     29 C         143.4075  142.2624  169.0639 C.3     1  UNL1        0.0063
@<TRIPOS>BOND
     1     3     4    1
     2     4     5    1
     3     5     6    1
     4     6     7    1
     5     7     2    1
     6     2     1    1
     7     1    16    1
     8    16    17    1
     9    17    18   ar
    10    18    19   ar
    11    19    23    1
    12    23    24    1
    13    23    25    1
    14    23    26    1
    15    19    20   ar
    16    20    21   ar
    17    21    27    1
    18    27    28    1
    19    28    29    1
    20    21    22   ar
    21     7    10    1
    22    10    11   ar
    23    11    12   ar
    24    12    13   ar
    25    13    14   ar
    26    14    15   ar
    27     7     8    1
    28     8     9    1
    29     9     4    1
    30    22    17   ar
    31    15    10   ar
    32    29    27    1
@<TRIPOS>MOLECULE
*****
 29 32 0 0 0
SMALL
GASTEIGER

@<TRIPOS>ATOM
      1 O         140.6753  143.2498  165.3280 O.3     1  UNL1       -0.3470
      2 C         142.0099  142.8718  165.8991 C.3     1  UNL1        0.1467
      3 C         140.2433  140.1886  170.6448 C.3     1  UNL1        0.0896
      4 N         140.8684  140.6981  169.3801 N.3     1  UNL1       -0.2715
      5 C         141.9727  139.9233  168.7242 C.3     1  UNL1        0.0725
      6 C         142.5978  140.4329  167.4595 C.3     1  UNL1        0.0238
      7 C         142.1186  141.7172  166.8506 C.3     1  UNL1        0.0489
      8 C         141.0144  142.4920  167.5064 C.3     1  UNL1        0.0238
      9 C         140.3892  141.9825  168.7712 C.3     1  UNL1        0.0725
     10 C         143.1852  141.3434  165.8643 C.ar    1  UNL1       -0.0204
     11 C         143.4207  139.9014  165.5248 C.ar    1  UNL1       -0.0042
     12 C         144.4872  139.5275  164.5386 C.ar    1  UNL1       -0.0003
     13 C         145.3182  140.5957  163.8917 C.ar    1  UNL1       -0.0000
     14 C         145.0828  142.0377  164.2311 C.ar    1  UNL1       -0.0003
     15 C         144.0162  142.4115  165.2174 C.ar    1  UNL1       -0.0042
     16 C         140.2128  142.6421  164.0369 C.3     1  UNL1        0.1874
     17 C         140.3552  141.1664  163.8091 C.ar    1  UNL1        0.0883
     18 C         139.5574  140.1998  164.6334 C.ar    1  UNL1        0.0211
     19 C         139.6998  138.7241  164.4056 C.ar    1  UNL1        0.0738
     20 C         140.6399  138.2149  163.3536 C.ar    1  UNL1        0.0186
     21 C         141.4377  139.1814  162.5293 C.ar    1  UNL1        0.0583
     22 N         141.2954  140.6571  162.7571 N.ar    1  UNL1       -0.2515
     23 C         138.9020  137.7575  165.2299 C.3     1  UNL1        0.4187
     24 F         138.1043  136.7910  166.0541 F       1  UNL1       -0.1659
     25 F         139.9606  136.7137  165.0303 F       1  UNL1       -0.1659
     26 F         137.8434  138.8014  165.4294 F       1  UNL1       -0.1659
     27 C         142.3778  138.6721  161.4773 C.3     1  UNL1        0.0403
     28 C         143.7755  138.4768  160.9687 C.3     1  UNL1        0.0063
     29 C         142.6088  137.9854  160.1639 C.3     1  UNL1        0.0063
@<TRIPOS>BOND
     1     3     4    1
     2     4     5    1
     3     5     6    1
     4     6     7    1
     5     7     2    1
     6     2     1    1
     7     1    16    1
     8    16    17    1
     9    17    18   ar
    10    18    19   ar
    11    19    23    1
    12    23    24    1
    13    23    25    1
    14    23    26    1
    15    19    20   ar
    16    20    21   ar
    17    21    27    1
    18    27    28    1
    19    28    29    1
    20    21    22   ar
    21     7    10    1
    22    10    11   ar
    23    11    12   ar
    24    12    13   ar
    25    13    14   ar
    26    14    15   ar
    27     7     8    1
    28     8     9    1
    29     9     4    1
    30    22    17   ar
    31    15    10   ar
    32    29    27    1
@<TRIPOS>MOLECULE
*****
 29 32 0 0 0
SMALL
GASTEIGER

@<TRIPOS>ATOM
      1 O         138.4031  141.7871  162.3352 O.3     1  UNL1       -0.3470
      2 C         138.3796  140.2873  162.3343 C.3     1  UNL1        0.1467
      3 C         138.8891  139.5559  156.6733 C.3     1  UNL1        0.0896
      4 N         138.9095  139.5469  158.1731 N.3     1  UNL1       -0.2715
      5 C         139.7097  138.5114  158.9061 C.3     1  UNL1        0.0725
      6 C         139.7301  138.5024  160.4059 C.3     1  UNL1        0.0238
      7 C         138.9503  139.5289  161.1728 C.3     1  UNL1        0.0489
      8 C         138.1501  140.5644  160.4398 C.3     1  UNL1        0.0238
      9 C         138.1297  140.5734  158.9400 C.3     1  UNL1        0.0725
     10 C         139.5523  138.7567  162.3092 C.ar    1  UNL1       -0.0204
     11 C         138.7294  138.4465  163.5243 C.ar    1  UNL1       -0.0042
     12 C         139.3314  137.6743  164.6607 C.ar    1  UNL1       -0.0003
     13 C         140.7563  137.2124  164.5819 C.ar    1  UNL1       -0.0000
     14 C         141.5792  137.5225  163.3668 C.ar    1  UNL1       -0.0003
     15 C         140.9772  138.2947  162.2304 C.ar    1  UNL1       -0.0042
     16 C         139.0525  142.5263  163.4674 C.3     1  UNL1        0.1874
     17 C         139.9239  141.7905  164.4417 C.ar    1  UNL1        0.0883
     18 C         139.3859  141.4080  165.7887 C.ar    1  UNL1        0.0211
     19 C         140.2574  140.6722  166.7629 C.ar    1  UNL1        0.0738
     20 C         141.6667  140.3188  166.3902 C.ar    1  UNL1        0.0186
     21 C         142.2046  140.7013  165.0432 C.ar    1  UNL1        0.0583
     22 N         141.3332  141.4371  164.0689 N.ar    1  UNL1       -0.2515
     23 C         139.7195  140.2897  168.1100 C.3     1  UNL1        0.4187
     24 F         139.1817  139.9071  169.4569 F       1  UNL1       -0.1659
     25 F         138.7455  139.3552  167.4556 F       1  UNL1       -0.1659
     26 F         140.6936  141.2241  168.7642 F       1  UNL1       -0.1659
     27 C         143.6139  140.3479  164.6705 C.3     1  UNL1        0.0403
     28 C         144.6936  139.3207  164.4988 C.3     1  UNL1        0.0063
     29 C         144.9753  140.7627  164.1966 C.3     1  UNL1        0.0063
@<TRIPOS>BOND
     1     3     4    1
     2     4     5    1
     3     5     6    1
     4     6     7    1
     5     7     2    1
     6     2     1    1
     7     1    16    1
     8    16    17    1
     9    17    18   ar
    10    18    19   ar
    11    19    23    1
    12    23    24    1
    13    23    25    1
    14    23    26    1
    15    19    20   ar
    16    20    21   ar
    17    21    27    1
    18    27    28    1
    19    28    29    1
    20    21    22   ar
    21     7    10    1
    22    10    11   ar
    23    11    12   ar
    24    12    13   ar
    25    13    14   ar
    26    14    15   ar
    27     7     8    1
    28     8     9    1
    29     9     4    1
    30    22    17   ar
    31    15    10   ar
    32    29    27    1
