@<TRIPOS>MOLECULE
*****
 31 34 0 0 0
SMALL
GASTEIGER

@<TRIPOS>ATOM
      1 C         137.3287  138.0503  167.1318 C.3     1  UNL1        0.0420
      2 C         138.2829  139.1192  166.6880 C.3     1  UNL1        0.1912
      3 O         138.4014  139.4615  165.2324 O.3     1  UNL1       -0.3500
      4 C         139.3557  140.5304  164.7886 C.3     1  UNL1        0.1145
      5 C         140.3100  141.5993  164.3448 C.3     1  UNL1        0.0463
      6 C         140.4285  141.9416  162.8893 C.3     1  UNL1        0.0746
      7 N         139.5927  141.2151  161.8775 N.3     1  UNL1       -0.2722
      8 C         138.6385  140.1463  162.3212 C.3     1  UNL1        0.0746
      9 C         138.5200  139.8039  163.7768 C.3     1  UNL1        0.0463
     10 C         140.1915  141.2569  165.8004 C.3     1  UNL1        0.1254
     11 N         140.0729  140.9145  167.2560 N.am    1  UNL1       -0.2529
     12 C         139.1187  139.8457  167.6998 C.2     1  UNL1        0.2566
     13 O         139.0002  139.5032  169.1554 O.2     1  UNL1       -0.2719
     14 C         140.9087  141.6410  168.2678 C.ar    1  UNL1        0.0757
     15 C         140.4025  142.9102  168.8865 C.ar    1  UNL1        0.0180
     16 C         141.2383  143.6367  169.8983 C.ar    1  UNL1        0.0219
     17 C         142.5802  143.0939  170.2915 C.ar    1  UNL1        0.0989
     18 N         143.0864  141.8246  169.6728 N.ar    1  UNL1       -0.2386
     19 C         142.2506  141.0981  168.6610 C.ar    1  UNL1        0.1662
     20 C         142.7568  139.8289  168.0424 C.3     1  UNL1        0.4360
     21 F         143.2630  138.5596  167.4238 F       1  UNL1       -0.1644
     22 F         142.2466  139.0517  169.2195 F       1  UNL1       -0.1644
     23 F         143.2670  140.6060  166.8653 F       1  UNL1       -0.1644
     24 C         139.7112  141.5575  160.4218 C.3     1  UNL1        0.0768
     25 C         140.7708  140.9076  159.5824 C.3     1  UNL1        0.0437
     26 C         141.7983  140.0228  160.2240 C.ar    1  UNL1       -0.0208
     27 C         143.0915  140.6062  160.7111 C.ar    1  UNL1       -0.0042
     28 C         144.1188  139.7215  161.3527 C.ar    1  UNL1       -0.0003
     29 C         143.8530  138.2534  161.5073 C.ar    1  UNL1       -0.0000
     30 C         142.5598  137.6700  161.0203 C.ar    1  UNL1       -0.0003
     31 C         141.5325  138.5547  160.3786 C.ar    1  UNL1       -0.0042
@<TRIPOS>BOND
     1     1     2    1
     2     2     3    1
     3     3     4    1
     4     4     5    1
     5     5     6    1
     6     6     7    1
     7     7    24    1
     8    24    25    1
     9    25    26    1
    10    26    27   ar
    11    27    28   ar
    12    28    29   ar
    13    29    30   ar
    14    30    31   ar
    15     7     8    1
    16     8     9    1
    17     4    10    1
    18    10    11    1
    19    11    14    1
    20    14    15   ar
    21    15    16   ar
    22    16    17   ar
    23    17    18   ar
    24    18    19   ar
    25    19    20    1
    26    20    21    1
    27    20    22    1
    28    20    23    1
    29    11    12   am
    30    12    13    2
    31    12     2    1
    32     9     4    1
    33    19    14   ar
    34    31    26   ar
@<TRIPOS>MOLECULE
*****
 31 34 0 0 0
SMALL
GASTEIGER

@<TRIPOS>ATOM
      1 C         137.3790  138.1793  167.1282 C.3     1  UNL1        0.0420
      2 C         138.2349  139.3418  166.7205 C.3     1  UNL1        0.1912
      3 O         138.1707  139.8642  165.3159 O.3     1  UNL1       -0.3500
      4 C         139.0266  141.0267  164.9082 C.3     1  UNL1        0.1145
      5 C         139.8825  142.1891  164.5006 C.3     1  UNL1        0.0463
      6 C         139.8183  142.7115  163.0960 C.3     1  UNL1        0.0746
      7 N         138.8983  142.0715  162.0991 N.3     1  UNL1       -0.2722
      8 C         138.0424  140.9091  162.5067 C.3     1  UNL1        0.0746
      9 C         138.1066  140.3867  163.9113 C.3     1  UNL1        0.0463
     10 C         139.9467  141.6667  165.9052 C.3     1  UNL1        0.1254
     11 N         140.0108  141.1442  167.3098 N.am    1  UNL1       -0.2529
     12 C         139.1550  139.9818  167.7175 C.2     1  UNL1        0.2566
     13 O         139.2191  139.4593  169.1221 O.2     1  UNL1       -0.2719
     14 C         140.9309  141.7842  168.3068 C.ar    1  UNL1        0.0757
     15 C         140.4864  142.9997  169.0651 C.ar    1  UNL1        0.0180
     16 C         141.4065  143.6397  170.0621 C.ar    1  UNL1        0.0219
     17 C         142.7710  143.0643  170.3007 C.ar    1  UNL1        0.0989
     18 N         143.2155  141.8488  169.5423 N.ar    1  UNL1       -0.2386
     19 C         142.2955  141.2087  168.5454 C.ar    1  UNL1        0.1662
     20 C         142.7399  139.9933  167.7870 C.3     1  UNL1        0.4360
     21 F         143.1844  138.7779  167.0287 F       1  UNL1       -0.1644
     22 F         143.1367  140.8607  166.6294 F       1  UNL1       -0.1644
     23 F         142.3432  139.1259  168.9447 F       1  UNL1       -0.1644
     24 C         138.8341  142.5940  160.6944 C.3     1  UNL1        0.0768
     25 C         140.0044  143.3315  160.1143 C.3     1  UNL1        0.0437
     26 C         139.8670  144.0411  158.7999 C.ar    1  UNL1       -0.0208
     27 C         139.2223  143.3474  157.6368 C.ar    1  UNL1       -0.0042
     28 C         139.0849  144.0570  156.3225 C.ar    1  UNL1       -0.0003
     29 C         139.5923  145.4605  156.1713 C.ar    1  UNL1       -0.0000
     30 C         140.2371  146.1543  157.3345 C.ar    1  UNL1       -0.0003
     31 C         140.3744  145.4446  158.6488 C.ar    1  UNL1       -0.0042
@<TRIPOS>BOND
     1     1     2    1
     2     2     3    1
     3     3     4    1
     4     4     5    1
     5     5     6    1
     6     6     7    1
     7     7    24    1
     8    24    25    1
     9    25    26    1
    10    26    27   ar
    11    27    28   ar
    12    28    29   ar
    13    29    30   ar
    14    30    31   ar
    15     7     8    1
    16     8     9    1
    17     4    10    1
    18    10    11    1
    19    11    14    1
    20    14    15   ar
    21    15    16   ar
    22    16    17   ar
    23    17    18   ar
    24    18    19   ar
    25    19    20    1
    26    20    21    1
    27    20    22    1
    28    20    23    1
    29    11    12   am
    30    12    13    2
    31    12     2    1
    32     9     4    1
    33    19    14   ar
    34    31    26   ar
@<TRIPOS>MOLECULE
*****
 31 34 0 0 0
SMALL
GASTEIGER

@<TRIPOS>ATOM
      1 C         137.0525  137.9098  167.4090 C.3     1  UNL1        0.0420
      2 C         138.1243  138.8251  166.8954 C.3     1  UNL1        0.1912
      3 O         138.4054  138.8993  165.4239 O.3     1  UNL1       -0.3500
      4 C         139.4772  139.8145  164.9102 C.3     1  UNL1        0.1145
      5 C         140.5489  140.7297  164.3967 C.3     1  UNL1        0.0463
      6 C         140.8300  140.8040  162.9252 C.3     1  UNL1        0.0746
      7 N         140.0394  139.9630  161.9672 N.3     1  UNL1       -0.2722
      8 C         138.9677  139.0478  162.4807 C.3     1  UNL1        0.0746
      9 C         138.6866  138.9736  163.9523 C.3     1  UNL1        0.0463
     10 C         140.2678  140.6555  165.8682 C.3     1  UNL1        0.1254
     11 N         139.9866  140.5812  167.3398 N.am    1  UNL1       -0.2529
     12 C         138.9149  139.6660  167.8534 C.2     1  UNL1        0.2566
     13 O         138.6337  139.5917  169.3249 O.2     1  UNL1       -0.2719
     14 C         140.7773  141.4222  168.2978 C.ar    1  UNL1        0.0757
     15 C         140.2301  142.7366  168.7698 C.ar    1  UNL1        0.0180
     16 C         141.0207  143.5775  169.7278 C.ar    1  UNL1        0.0219
     17 C         142.3585  143.1040  170.2138 C.ar    1  UNL1        0.0989
     18 N         142.9057  141.7895  169.7417 N.ar    1  UNL1       -0.2386
     19 C         142.1151  140.9486  168.7837 C.ar    1  UNL1        0.1662
     20 C         142.6622  139.6342  168.3117 C.3     1  UNL1        0.4360
     21 F         143.2093  138.3197  167.8397 F       1  UNL1       -0.1644
     22 F         142.0973  138.9622  169.5279 F       1  UNL1       -0.1644
     23 F         143.2271  140.3061  167.0955 F       1  UNL1       -0.1644
     24 C         140.3206  140.0373  160.4956 C.3     1  UNL1        0.0768
     25 C         141.4916  139.2995  159.9176 C.3     1  UNL1        0.0437
     26 C         141.3203  138.4755  158.6759 C.ar    1  UNL1       -0.0208
     27 C         139.9620  138.3238  158.0580 C.ar    1  UNL1       -0.0042
     28 C         139.7907  137.4999  156.8163 C.ar    1  UNL1       -0.0003
     29 C         140.9778  136.8277  156.1925 C.ar    1  UNL1       -0.0000
     30 C         142.3361  136.9794  156.8105 C.ar    1  UNL1       -0.0003
     31 C         142.5074  137.8034  158.0521 C.ar    1  UNL1       -0.0042
@<TRIPOS>BOND
     1     1     2    1
     2     2     3    1
     3     3     4    1
     4     4     5    1
     5     5     6    1
     6     6     7    1
     7     7    24    1
     8    24    25    1
     9    25    26    1
    10    26    27   ar
    11    27    28   ar
    12    28    29   ar
    13    29    30   ar
    14    30    31   ar
    15     7     8    1
    16     8     9    1
    17     4    10    1
    18    10    11    1
    19    11    14    1
    20    14    15   ar
    21    15    16   ar
    22    16    17   ar
    23    17    18   ar
    24    18    19   ar
    25    19    20    1
    26    20    21    1
    27    20    22    1
    28    20    23    1
    29    11    12   am
    30    12    13    2
    31    12     2    1
    32     9     4    1
    33    19    14   ar
    34    31    26   ar
@<TRIPOS>MOLECULE
*****
 31 34 0 0 0
SMALL
GASTEIGER

@<TRIPOS>ATOM
      1 C         137.2773  138.1000  167.2743 C.3     1  UNL1        0.0420
      2 C         138.1944  139.1974  166.8217 C.3     1  UNL1        0.1912
      3 O         138.2322  139.5946  165.3758 O.3     1  UNL1       -0.3500
      4 C         139.1493  140.6920  164.9231 C.3     1  UNL1        0.1145
      5 C         140.0663  141.7893  164.4706 C.3     1  UNL1        0.0463
      6 C         140.1041  142.1866  163.0247 C.3     1  UNL1        0.0746
      7 N         139.2248  141.4864  162.0313 N.3     1  UNL1       -0.2722
      8 C         138.3078  140.3891  162.4839 C.3     1  UNL1        0.0746
      9 C         138.2700  139.9919  163.9298 C.3     1  UNL1        0.0463
     10 C         140.0285  141.3921  165.9165 C.3     1  UNL1        0.1254
     11 N         139.9907  140.9949  167.3625 N.am    1  UNL1       -0.2529
     12 C         139.0737  139.8975  167.8151 C.2     1  UNL1        0.2566
     13 O         139.0358  139.5002  169.2611 O.2     1  UNL1       -0.2719
     14 C         140.8699  141.6950  168.3559 C.ar    1  UNL1        0.0757
     15 C         140.4027  142.9618  169.0090 C.ar    1  UNL1        0.0180
     16 C         141.2820  143.6620  170.0024 C.ar    1  UNL1        0.0219
     17 C         142.6284  143.0952  170.3426 C.ar    1  UNL1        0.0989
     18 N         143.0957  141.8283  169.6894 N.ar    1  UNL1       -0.2386
     19 C         142.2165  141.1281  168.6960 C.ar    1  UNL1        0.1662
     20 C         142.6837  139.8613  168.0428 C.3     1  UNL1        0.4360
     21 F         143.1509  138.5944  167.3897 F       1  UNL1       -0.1644
     22 F         143.1444  140.6460  166.8504 F       1  UNL1       -0.1644
     23 F         142.2230  139.0766  169.2353 F       1  UNL1       -0.1644
     24 C         139.2627  141.8837  160.5853 C.3     1  UNL1        0.0768
     25 C         140.4267  141.4839  159.7279 C.3     1  UNL1        0.0437
     26 C         141.8215  141.5584  160.2746 C.ar    1  UNL1       -0.0208
     27 C         142.5495  142.8697  160.2966 C.ar    1  UNL1       -0.0042
     28 C         143.9443  142.9441  160.8433 C.ar    1  UNL1       -0.0003
     29 C         144.6111  141.7072  161.3681 C.ar    1  UNL1       -0.0000
     30 C         143.8831  140.3959  161.3462 C.ar    1  UNL1       -0.0003
     31 C         142.4884  140.3215  160.7995 C.ar    1  UNL1       -0.0042
@<TRIPOS>BOND
     1     1     2    1
     2     2     3    1
     3     3     4    1
     4     4     5    1
     5     5     6    1
     6     6     7    1
     7     7    24    1
     8    24    25    1
     9    25    26    1
    10    26    27   ar
    11    27    28   ar
    12    28    29   ar
    13    29    30   ar
    14    30    31   ar
    15     7     8    1
    16     8     9    1
    17     4    10    1
    18    10    11    1
    19    11    14    1
    20    14    15   ar
    21    15    16   ar
    22    16    17   ar
    23    17    18   ar
    24    18    19   ar
    25    19    20    1
    26    20    21    1
    27    20    22    1
    28    20    23    1
    29    11    12   am
    30    12    13    2
    31    12     2    1
    32     9     4    1
    33    19    14   ar
    34    31    26   ar
@<TRIPOS>MOLECULE
*****
 31 34 0 0 0
SMALL
GASTEIGER

@<TRIPOS>ATOM
      1 C         138.9237  138.3629  160.8952 C.3     1  UNL1        0.0420
      2 C         139.5572  139.4302  161.7376 C.3     1  UNL1        0.1912
      3 O         140.2896  139.0588  162.9928 O.3     1  UNL1       -0.3500
      4 C         140.9231  140.1261  163.8352 C.3     1  UNL1        0.1145
      5 C         141.5566  141.1934  164.6775 C.3     1  UNL1        0.0463
      6 C         142.2890  140.8221  165.9327 C.3     1  UNL1        0.0746
      7 N         142.3880  139.3834  166.3456 N.3     1  UNL1       -0.2722
      8 C         141.7546  138.3161  165.5032 C.3     1  UNL1        0.0746
      9 C         141.0221  138.6875  164.2481 C.3     1  UNL1        0.0463
     10 C         140.8241  141.5648  163.4223 C.3     1  UNL1        0.1254
     11 N         140.0916  141.9361  162.1671 N.am    1  UNL1       -0.2529
     12 C         139.4582  140.8689  161.3247 C.2     1  UNL1        0.2566
     13 O         138.7257  141.2402  160.0695 O.2     1  UNL1       -0.2719
     14 C         139.9926  143.3748  161.7542 C.ar    1  UNL1        0.0757
     15 C         140.8426  143.8933  160.6324 C.ar    1  UNL1        0.0180
     16 C         140.7436  145.3320  160.2195 C.ar    1  UNL1        0.0219
     17 C         139.7946  146.2521  160.9285 C.ar    1  UNL1        0.0989
     18 N         138.9445  145.7336  162.0504 N.ar    1  UNL1       -0.2386
     19 C         139.0435  144.2950  162.4633 C.ar    1  UNL1        0.1662
     20 C         138.1936  143.7764  163.5851 C.3     1  UNL1        0.4360
     21 F         137.3436  143.2579  164.7070 F       1  UNL1       -0.1644
     22 F         139.1495  144.3635  164.5808 F       1  UNL1       -0.1644
     23 F         137.2376  143.1894  162.5894 F       1  UNL1       -0.1644
     24 C         143.1205  139.0121  167.6008 C.3     1  UNL1        0.0768
     25 C         142.4504  139.1667  168.9339 C.3     1  UNL1        0.0437
     26 C         141.8361  140.4806  169.3166 C.ar    1  UNL1       -0.0208
     27 C         142.7062  141.6864  169.5131 C.ar    1  UNL1       -0.0042
     28 C         142.0919  143.0002  169.8959 C.ar    1  UNL1       -0.0003
     29 C         140.6074  143.1081  170.0821 C.ar    1  UNL1       -0.0000
     30 C         139.7373  141.9022  169.8856 C.ar    1  UNL1       -0.0003
     31 C         140.3516  140.5884  169.5028 C.ar    1  UNL1       -0.0042
@<TRIPOS>BOND
     1     1     2    1
     2     2     3    1
     3     3     4    1
     4     4     5    1
     5     5     6    1
     6     6     7    1
     7     7    24    1
     8    24    25    1
     9    25    26    1
    10    26    27   ar
    11    27    28   ar
    12    28    29   ar
    13    29    30   ar
    14    30    31   ar
    15     7     8    1
    16     8     9    1
    17     4    10    1
    18    10    11    1
    19    11    14    1
    20    14    15   ar
    21    15    16   ar
    22    16    17   ar
    23    17    18   ar
    24    18    19   ar
    25    19    20    1
    26    20    21    1
    27    20    22    1
    28    20    23    1
    29    11    12   am
    30    12    13    2
    31    12     2    1
    32     9     4    1
    33    19    14   ar
    34    31    26   ar
@<TRIPOS>MOLECULE
*****
 31 34 0 0 0
SMALL
GASTEIGER

@<TRIPOS>ATOM
      1 C         137.2838  138.0046  167.1845 C.3     1  UNL1        0.0420
      2 C         138.2524  139.0547  166.7274 C.3     1  UNL1        0.1912
      3 O         138.3930  139.3601  165.2655 O.3     1  UNL1       -0.3500
      4 C         139.3617  140.4102  164.8084 C.3     1  UNL1        0.1145
      5 C         140.3303  141.4603  164.3514 C.3     1  UNL1        0.0463
      6 C         140.4709  141.7657  162.8896 C.3     1  UNL1        0.0746
      7 N         139.6429  141.0209  161.8848 N.3     1  UNL1       -0.2722
      8 C         138.6742  139.9708  162.3418 C.3     1  UNL1        0.0746
      9 C         138.5336  139.6654  163.8036 C.3     1  UNL1        0.0463
     10 C         140.1898  141.1550  165.8132 C.3     1  UNL1        0.1254
     11 N         140.0492  140.8496  167.2751 N.am    1  UNL1       -0.2529
     12 C         139.0805  139.7995  167.7321 C.2     1  UNL1        0.2566
     13 O         138.9399  139.4941  169.1940 O.2     1  UNL1       -0.2719
     14 C         140.8772  141.5944  168.2799 C.ar    1  UNL1        0.0757
     15 C         140.3640  142.8717  168.8757 C.ar    1  UNL1        0.0180
     16 C         141.1921  143.6165  169.8805 C.ar    1  UNL1        0.0219
     17 C         142.5334  143.0840  170.2895 C.ar    1  UNL1        0.0989
     18 N         143.0467  141.8066  169.6936 N.ar    1  UNL1       -0.2386
     19 C         142.2186  141.0618  168.6889 C.ar    1  UNL1        0.1662
     20 C         142.7318  139.7845  168.0931 C.3     1  UNL1        0.4360
     21 F         143.2450  138.5072  167.4973 F       1  UNL1       -0.1644
     22 F         142.2646  139.0321  169.3036 F       1  UNL1       -0.1644
     23 F         143.1991  140.5369  166.8825 F       1  UNL1       -0.1644
     24 C         139.7835  141.3263  160.4229 C.3     1  UNL1        0.0768
     25 C         139.9009  140.2073  159.4309 C.3     1  UNL1        0.0437
     26 C         139.0919  140.2366  158.1680 C.ar    1  UNL1       -0.0208
     27 C         139.4849  139.3741  157.0054 C.ar    1  UNL1       -0.0042
     28 C         138.6759  139.4035  155.7426 C.ar    1  UNL1       -0.0003
     29 C         137.4740  140.2953  155.6424 C.ar    1  UNL1       -0.0000
     30 C         137.0810  141.1578  156.8050 C.ar    1  UNL1       -0.0003
     31 C         137.8900  141.1285  158.0678 C.ar    1  UNL1       -0.0042
@<TRIPOS>BOND
     1     1     2    1
     2     2     3    1
     3     3     4    1
     4     4     5    1
     5     5     6    1
     6     6     7    1
     7     7    24    1
     8    24    25    1
     9    25    26    1
    10    26    27   ar
    11    27    28   ar
    12    28    29   ar
    13    29    30   ar
    14    30    31   ar
    15     7     8    1
    16     8     9    1
    17     4    10    1
    18    10    11    1
    19    11    14    1
    20    14    15   ar
    21    15    16   ar
    22    16    17   ar
    23    17    18   ar
    24    18    19   ar
    25    19    20    1
    26    20    21    1
    27    20    22    1
    28    20    23    1
    29    11    12   am
    30    12    13    2
    31    12     2    1
    32     9     4    1
    33    19    14   ar
    34    31    26   ar
@<TRIPOS>MOLECULE
*****
 31 34 0 0 0
SMALL
GASTEIGER

@<TRIPOS>ATOM
      1 C         143.4434  145.1233  163.3244 C.3     1  UNL1        0.0420
      2 C         142.3530  144.3332  162.6633 C.3     1  UNL1        0.1912
      3 O         141.9018  144.6909  161.2782 O.3     1  UNL1       -0.3500
      4 C         140.8115  143.9008  160.6171 C.3     1  UNL1        0.1145
      5 C         139.7212  143.1107  159.9560 C.3     1  UNL1        0.0463
      6 C         139.2700  143.4685  158.5710 C.3     1  UNL1        0.0746
      7 N         139.9091  144.6163  157.8470 N.3     1  UNL1       -0.2722
      8 C         140.9993  145.4064  158.5081 C.3     1  UNL1        0.0746
      9 C         141.4505  145.0486  159.8931 C.3     1  UNL1        0.0463
     10 C         140.1724  142.7530  161.3411 C.3     1  UNL1        0.1254
     11 N         140.6237  142.3953  162.7262 N.am    1  UNL1       -0.2529
     12 C         141.7140  143.1854  163.3873 C.2     1  UNL1        0.2566
     13 O         142.1652  142.8277  164.7724 O.2     1  UNL1       -0.2719
     14 C         139.9846  141.2475  163.4502 C.ar    1  UNL1        0.0757
     15 C         140.5921  139.8784  163.3697 C.ar    1  UNL1        0.0180
     16 C         139.9531  138.7306  164.0937 C.ar    1  UNL1        0.0219
     17 C         138.7065  138.9519  164.8981 C.ar    1  UNL1        0.0989
     18 N         138.0990  140.3210  164.9786 N.ar    1  UNL1       -0.2386
     19 C         138.7381  141.4688  164.2547 C.ar    1  UNL1        0.1662
     20 C         138.1306  142.8379  164.3351 C.3     1  UNL1        0.4360
     21 F         137.5231  144.2070  164.4156 F       1  UNL1       -0.1644
     22 F         137.1825  142.4823  163.2285 F       1  UNL1       -0.1644
     23 F         139.0787  143.1936  165.4417 F       1  UNL1       -0.1644
     24 C         139.4578  144.9740  156.4619 C.3     1  UNL1        0.0768
     25 C         140.2569  145.9404  155.6389 C.3     1  UNL1        0.0437
     26 C         139.7879  147.3563  155.4791 C.ar    1  UNL1       -0.0208
     27 C         138.9347  147.9879  156.5389 C.ar    1  UNL1       -0.0042
     28 C         138.4658  149.4036  156.3791 C.ar    1  UNL1       -0.0003
     29 C         138.8499  150.1878  155.1595 C.ar    1  UNL1       -0.0000
     30 C         139.7030  149.5562  154.0996 C.ar    1  UNL1       -0.0003
     31 C         140.1720  148.1405  154.2595 C.ar    1  UNL1       -0.0042
@<TRIPOS>BOND
     1     1     2    1
     2     2     3    1
     3     3     4    1
     4     4     5    1
     5     5     6    1
     6     6     7    1
     7     7    24    1
     8    24    25    1
     9    25    26    1
    10    26    27   ar
    11    27    28   ar
    12    28    29   ar
    13    29    30   ar
    14    30    31   ar
    15     7     8    1
    16     8     9    1
    17     4    10    1
    18    10    11    1
    19    11    14    1
    20    14    15   ar
    21    15    16   ar
    22    16    17   ar
    23    17    18   ar
    24    18    19   ar
    25    19    20    1
    26    20    21    1
    27    20    22    1
    28    20    23    1
    29    11    12   am
    30    12    13    2
    31    12     2    1
    32     9     4    1
    33    19    14   ar
    34    31    26   ar
@<TRIPOS>MOLECULE
*****
 31 34 0 0 0
SMALL
GASTEIGER

@<TRIPOS>ATOM
      1 C         138.4862  137.8793  162.5012 C.3     1  UNL1        0.0420
      2 C         139.2463  139.0000  163.1465 C.3     1  UNL1        0.1912
      3 O         139.5216  140.2591  162.3790 O.3     1  UNL1       -0.3500
      4 C         140.2817  141.3798  163.0243 C.3     1  UNL1        0.1145
      5 C         141.0418  142.5004  163.6696 C.3     1  UNL1        0.0463
      6 C         141.3170  143.7595  162.9022 C.3     1  UNL1        0.0746
      7 N         140.8321  143.8979  161.4895 N.3     1  UNL1       -0.2722
      8 C         140.0720  142.7773  160.8442 C.3     1  UNL1        0.0746
      9 C         139.7968  141.5182  161.6116 C.3     1  UNL1        0.0463
     10 C         140.7665  141.2414  164.4370 C.3     1  UNL1        0.1254
     11 N         140.4913  139.9822  165.2045 N.am    1  UNL1       -0.2529
     12 C         139.7312  138.8616  164.5592 C.2     1  UNL1        0.2566
     13 O         139.4559  137.6025  165.3266 O.2     1  UNL1       -0.2719
     14 C         140.9762  139.8438  166.6172 C.ar    1  UNL1        0.0757
     15 C         140.0495  140.1352  167.7601 C.ar    1  UNL1        0.0180
     16 C         140.5344  139.9968  169.1728 C.ar    1  UNL1        0.0219
     17 C         141.9459  139.5669  169.4426 C.ar    1  UNL1        0.0989
     18 N         142.8726  139.2755  168.2996 N.ar    1  UNL1       -0.2386
     19 C         142.3877  139.4139  166.8869 C.ar    1  UNL1        0.1662
     20 C         143.3144  139.1225  165.7439 C.3     1  UNL1        0.4360
     21 F         144.2410  138.8311  164.6010 F       1  UNL1       -0.1644
     22 F         142.8942  137.6828  165.7704 F       1  UNL1       -0.1644
     23 F         143.7346  140.5622  165.7175 F       1  UNL1       -0.1644
     24 C         141.1074  145.1571  160.7220 C.3     1  UNL1        0.0768
     25 C         140.2243  145.5430  159.5726 C.3     1  UNL1        0.0437
     26 C         140.7454  145.4672  158.1680 C.ar    1  UNL1       -0.0208
     27 C         140.1137  146.2946  157.0881 C.ar    1  UNL1       -0.0042
     28 C         140.6348  146.2187  155.6836 C.ar    1  UNL1       -0.0003
     29 C         141.7875  145.3154  155.3590 C.ar    1  UNL1       -0.0000
     30 C         142.4192  144.4880  156.4390 C.ar    1  UNL1       -0.0003
     31 C         141.8981  144.5639  157.8435 C.ar    1  UNL1       -0.0042
@<TRIPOS>BOND
     1     1     2    1
     2     2     3    1
     3     3     4    1
     4     4     5    1
     5     5     6    1
     6     6     7    1
     7     7    24    1
     8    24    25    1
     9    25    26    1
    10    26    27   ar
    11    27    28   ar
    12    28    29   ar
    13    29    30   ar
    14    30    31   ar
    15     7     8    1
    16     8     9    1
    17     4    10    1
    18    10    11    1
    19    11    14    1
    20    14    15   ar
    21    15    16   ar
    22    16    17   ar
    23    17    18   ar
    24    18    19   ar
    25    19    20    1
    26    20    21    1
    27    20    22    1
    28    20    23    1
    29    11    12   am
    30    12    13    2
    31    12     2    1
    32     9     4    1
    33    19    14   ar
    34    31    26   ar
@<TRIPOS>MOLECULE
*****
 31 34 0 0 0
SMALL
GASTEIGER

@<TRIPOS>ATOM
      1 C         137.5694  137.6744  166.6548 C.3     1  UNL1        0.0420
      2 C         138.8491  138.4491  166.5444 C.3     1  UNL1        0.1912
      3 O         139.7767  138.2047  165.3913 O.3     1  UNL1       -0.3500
      4 C         141.0565  138.9794  165.2810 C.3     1  UNL1        0.1145
      5 C         142.3362  139.7542  165.1707 C.3     1  UNL1        0.0463
      6 C         143.2638  139.5097  164.0175 C.3     1  UNL1        0.0746
      7 N         142.9118  138.4906  162.9747 N.3     1  UNL1       -0.2722
      8 C         141.6321  137.7159  163.0850 C.3     1  UNL1        0.0746
      9 C         140.7045  137.9603  164.2381 C.3     1  UNL1        0.0463
     10 C         141.4085  139.9986  166.3238 C.3     1  UNL1        0.1254
     11 N         140.4808  140.2429  167.4769 N.am    1  UNL1       -0.2529
     12 C         139.2012  139.4682  167.5872 C.2     1  UNL1        0.2566
     13 O         138.2734  139.7126  168.7404 O.2     1  UNL1       -0.2719
     14 C         140.8329  141.2621  168.5198 C.ar    1  UNL1        0.0757
     15 C         140.3762  142.6824  168.3647 C.ar    1  UNL1        0.0180
     16 C         140.7283  143.7015  169.4075 C.ar    1  UNL1        0.0219
     17 C         141.5370  143.3003  170.6054 C.ar    1  UNL1        0.0989
     18 N         141.9936  141.8799  170.7605 N.ar    1  UNL1       -0.2386
     19 C         141.6416  140.8608  169.7177 C.ar    1  UNL1        0.1662
     20 C         142.0982  139.4404  169.8728 C.3     1  UNL1        0.4360
     21 F         142.5549  138.0201  170.0279 F       1  UNL1       -0.1644
     22 F         140.8770  139.1370  170.6891 F       1  UNL1       -0.1644
     23 F         143.3195  139.7439  169.0565 F       1  UNL1       -0.1644
     24 C         143.8395  138.2463  161.8216 C.3     1  UNL1        0.0768
     25 C         143.9666  139.2688  160.7316 C.3     1  UNL1        0.0437
     26 C         143.5097  140.6779  160.9680 C.ar    1  UNL1       -0.0208
     27 C         142.0764  141.0512  160.7315 C.ar    1  UNL1       -0.0042
     28 C         141.6195  142.4602  160.9680 C.ar    1  UNL1       -0.0003
     29 C         142.5961  143.4959  161.4409 C.ar    1  UNL1       -0.0000
     30 C         144.0295  143.1226  161.6774 C.ar    1  UNL1       -0.0003
     31 C         144.4863  141.7136  161.4409 C.ar    1  UNL1       -0.0042
@<TRIPOS>BOND
     1     1     2    1
     2     2     3    1
     3     3     4    1
     4     4     5    1
     5     5     6    1
     6     6     7    1
     7     7    24    1
     8    24    25    1
     9    25    26    1
    10    26    27   ar
    11    27    28   ar
    12    28    29   ar
    13    29    30   ar
    14    30    31   ar
    15     7     8    1
    16     8     9    1
    17     4    10    1
    18    10    11    1
    19    11    14    1
    20    14    15   ar
    21    15    16   ar
    22    16    17   ar
    23    17    18   ar
    24    18    19   ar
    25    19    20    1
    26    20    21    1
    27    20    22    1
    28    20    23    1
    29    11    12   am
    30    12    13    2
    31    12     2    1
    32     9     4    1
    33    19    14   ar
    34    31    26   ar
