@<TRIPOS>MOLECULE
*****
 38 41 0 0 0
SMALL
GASTEIGER

@<TRIPOS>ATOM
      1 C         140.6419  140.8611  167.4165 C.3     1  UNL1        0.1517
      2 C         139.5264  139.9887  166.9217 C.3     1  UNL1        0.0332
      3 C         139.5149  139.0664  165.7388 C.3     1  UNL1        0.0222
      4 C         138.8895  138.0703  164.8078 C.3     1  UNL1        0.0045
      5 C         138.1356  138.9009  166.3046 C.3     1  UNL1        0.0045
      6 C         140.6159  138.7885  164.7587 C.ar    1  UNL1       -0.0092
      7 C         140.1870  137.7951  163.7199 C.ar    1  UNL1       -0.0018
      8 C         141.1427  137.3776  162.6417 C.ar    1  UNL1        0.0144
      9 C         142.5271  137.9535  162.6024 C.ar    1  UNL1        0.0517
     10 C         142.9560  138.9470  163.6411 C.ar    1  UNL1        0.0290
     11 C         142.0004  139.3645  164.7193 C.ar    1  UNL1        0.0475
     12 N         142.6257  140.3605  165.6504 N.am    1  UNL1       -0.2828
     13 C         142.0212  141.0266  166.8507 C.2     1  UNL1        0.2441
     14 O         142.9140  141.9848  167.5820 O.2     1  UNL1       -0.2730
     15 H         143.5560  140.6101  165.4467 H       1  UNL1        0.1549
     16 C         140.2882  141.0174  169.9856 C.2     1  UNL1        0.4021
     17 O         140.5429  139.5444  170.1103 O.2     1  UNL1       -0.2264
     18 N         140.3377  141.6757  168.6387 N.am    1  UNL1       -0.2640
     19 H         140.1706  142.6425  168.5569 H       1  UNL1        0.1532
     20 C         139.4831  143.2388  171.0660 C.3     1  UNL1        0.2573
     21 O         139.9841  141.8321  171.2079 O.3     1  UNL1       -0.4306
     22 N         143.4828  137.5360  161.5241 N.pl3   1  UNL1       -0.2825
     23 H         144.1709  136.8574  161.7120 H       1  UNL1        0.1551
     24 C         143.3900  138.1523  160.1598 C.ar    1  UNL1        0.2220
     25 N         142.7643  137.3866  159.0319 N.ar    1  UNL1       -0.1956
     26 C         142.6715  138.0031  157.6675 C.ar    1  UNL1        0.1679
     27 C         143.2044  139.3851  157.4311 C.ar    1  UNL1        0.1942
     28 O         143.2527  140.2458  156.2036 O.2     1  UNL1       -0.4460
     29 C         143.9083  141.5435  156.5728 C.ar    1  UNL1        0.1814
     30 C         144.2651  141.4847  158.0285 C.ar    1  UNL1        0.0630
     31 C         143.8301  140.1508  158.5590 C.ar    1  UNL1        0.1245
     32 N         143.9229  139.5345  159.9233 N.ar    1  UNL1       -0.2103
     33 N         142.0458  137.2374  156.5396 N.pl3   1  UNL1       -0.3109
     34 H         141.4232  137.6880  155.9243 H       1  UNL1        0.1485
     35 C         142.3687  135.7849  156.3490 C.3     1  UNL1        0.1615
     36 C         143.7364  135.3748  155.8894 C.3     1  UNL1        0.3378
     37 F         144.7030  136.4095  155.3945 F       1  UNL1       -0.1965
     38 F         144.1375  133.9297  155.9247 F       1  UNL1       -0.1965
@<TRIPOS>BOND
     1    20    21    1
     2    21    16    1
     3    16    17    2
     4    16    18   am
     5     1    18    1
     6     1     2    1
     7     2     3    1
     8     3     4    1
     9     3     5    1
    10     3     6    1
    11     6     7   ar
    12     7     8   ar
    13     8     9   ar
    14     9    22    1
    15    22    24    1
    16    24    25   ar
    17    25    26   ar
    18    26    33    1
    19    33    35    1
    20    35    36    1
    21    36    37    1
    22    36    38    1
    23    26    27   ar
    24    27    28   ar
    25    28    29   ar
    26    29    30   ar
    27    30    31   ar
    28    31    32   ar
    29     9    10   ar
    30    10    11   ar
    31    11    12    1
    32    12    13   am
    33    13    14    2
    34    13     1    1
    35    11     6   ar
    36    32    24   ar
    37    31    27   ar
    38    18    19    1
    39    22    23    1
    40    33    34    1
    41    12    15    1
@<TRIPOS>MOLECULE
*****
 38 41 0 0 0
SMALL
GASTEIGER

@<TRIPOS>ATOM
      1 C         140.7847  140.6151  168.2151 C.3     1  UNL1        0.1517
      2 C         139.7183  139.8032  167.5414 C.3     1  UNL1        0.0332
      3 C         138.9519  140.1194  166.2914 C.3     1  UNL1        0.0222
      4 C         137.9347  139.8443  165.2237 C.3     1  UNL1        0.0045
      5 C         138.3887  138.7910  166.7013 C.3     1  UNL1        0.0045
      6 C         139.0624  141.3255  165.4063 C.ar    1  UNL1       -0.0092
      7 C         138.1082  141.2472  164.2517 C.ar    1  UNL1       -0.0018
      8 C         138.0582  142.3566  163.2435 C.ar    1  UNL1        0.0144
      9 C         138.9626  143.5444  163.3899 C.ar    1  UNL1        0.0517
     10 C         139.9168  143.6227  164.5445 C.ar    1  UNL1        0.0290
     11 C         139.9667  142.5132  165.5527 C.ar    1  UNL1        0.0475
     12 N         140.9839  142.7882  166.6204 N.am    1  UNL1       -0.2828
     13 C         141.3479  141.9436  167.8053 C.2     1  UNL1        0.2441
     14 O         142.4164  142.5010  168.6983 O.2     1  UNL1       -0.2730
     15 H         141.4778  143.6352  166.5317 H       1  UNL1        0.1549
     16 C         142.5926  139.1621  169.3857 C.2     1  UNL1        0.4021
     17 O         143.2410  138.8998  168.0587 O.2     1  UNL1       -0.2264
     18 N         141.3645  140.0197  169.4639 N.am    1  UNL1       -0.2640
     19 H         140.9389  140.1919  170.3348 H       1  UNL1        0.1532
     20 C         143.5892  137.1259  170.6549 C.3     1  UNL1        0.2573
     21 O         143.1723  138.5667  170.6345 O.3     1  UNL1       -0.4306
     22 N         138.9126  144.6539  162.3816 N.pl3   1  UNL1       -0.2825
     23 H         138.2272  145.3566  162.4565 H       1  UNL1        0.1551
     24 C         139.9070  144.6927  161.2592 C.ar    1  UNL1        0.2220
     25 N         141.2404  144.0237  161.4152 N.ar    1  UNL1       -0.1956
     26 C         142.2348  144.0626  160.2927 C.ar    1  UNL1        0.1679
     27 C         141.8957  144.7703  159.0145 C.ar    1  UNL1        0.1942
     28 O         142.6675  144.9736  157.7444 O.2     1  UNL1       -0.4460
     29 C         141.8111  145.7681  156.8036 C.ar    1  UNL1        0.1814
     30 C         140.5099  146.0559  157.4921 C.ar    1  UNL1        0.0630
     31 C         140.5622  145.4393  158.8585 C.ar    1  UNL1        0.1245
     32 N         139.5678  145.4004  159.9809 N.ar    1  UNL1       -0.2103
     33 N         143.5683  143.3936  160.4487 N.pl3   1  UNL1       -0.3109
     34 H         144.3873  143.9366  160.5094 H       1  UNL1        0.1485
     35 C         143.6540  141.8974  160.5120 C.3     1  UNL1        0.1615
     36 C         144.0872  141.2240  161.7804 C.3     1  UNL1        0.3378
     37 F         145.3816  141.6122  162.4313 F       1  UNL1       -0.1965
     38 F         143.2260  140.1623  162.3979 F       1  UNL1       -0.1965
@<TRIPOS>BOND
     1    20    21    1
     2    21    16    1
     3    16    17    2
     4    16    18   am
     5     1    18    1
     6     1     2    1
     7     2     3    1
     8     3     4    1
     9     3     5    1
    10     3     6    1
    11     6     7   ar
    12     7     8   ar
    13     8     9   ar
    14     9    22    1
    15    22    24    1
    16    24    25   ar
    17    25    26   ar
    18    26    33    1
    19    33    35    1
    20    35    36    1
    21    36    37    1
    22    36    38    1
    23    26    27   ar
    24    27    28   ar
    25    28    29   ar
    26    29    30   ar
    27    30    31   ar
    28    31    32   ar
    29     9    10   ar
    30    10    11   ar
    31    11    12    1
    32    12    13   am
    33    13    14    2
    34    13     1    1
    35    11     6   ar
    36    32    24   ar
    37    31    27   ar
    38    18    19    1
    39    22    23    1
    40    33    34    1
    41    12    15    1
@<TRIPOS>MOLECULE
*****
 38 41 0 0 0
SMALL
GASTEIGER

@<TRIPOS>ATOM
      1 C         139.3096  149.5545  154.6122 C.3     1  UNL1        0.1517
      2 C         140.1003  148.7218  153.6470 C.3     1  UNL1        0.0332
      3 C         140.6556  147.3417  153.8393 C.3     1  UNL1        0.0222
      4 C         141.4026  146.1136  153.4103 C.3     1  UNL1        0.0045
      5 C         141.0862  147.6833  152.4436 C.3     1  UNL1        0.0045
      6 C         140.5575  146.4534  155.0441 C.ar    1  UNL1       -0.0092
      7 C         141.2556  145.1451  154.8187 C.ar    1  UNL1       -0.0018
      8 C         141.2761  144.1094  155.9034 C.ar    1  UNL1        0.0144
      9 C         140.5984  144.3819  157.2136 C.ar    1  UNL1        0.0517
     10 C         139.9002  145.6902  157.4389 C.ar    1  UNL1        0.0290
     11 C         139.8797  146.7260  156.3542 C.ar    1  UNL1        0.0475
     12 N         139.1328  147.9541  156.7831 N.am    1  UNL1       -0.2828
     13 C         138.8790  149.2129  156.0079 C.2     1  UNL1        0.2441
     14 O         138.0905  150.2697  156.7228 O.2     1  UNL1       -0.2730
     15 H         138.7597  147.9308  157.6939 H       1  UNL1        0.1549
     16 C         139.8355  152.0703  154.2324 C.2     1  UNL1        0.4021
     17 O         141.1914  151.8793  154.8450 O.2     1  UNL1       -0.2264
     18 N         138.8947  150.9079  154.1160 N.am    1  UNL1       -0.2640
     19 H         138.0048  151.0332  153.7139 H       1  UNL1        0.1532
     20 C         138.2199  153.5610  152.8476 C.3     1  UNL1        0.2573
     21 O         139.4206  153.4237  153.7362 O.3     1  UNL1       -0.4306
     22 N         140.6189  143.3461  158.2984 N.pl3   1  UNL1       -0.2825
     23 H         140.6174  142.3895  158.0656 H       1  UNL1        0.1551
     24 C         140.6418  143.7677  159.7377 C.ar    1  UNL1        0.2220
     25 N         141.9262  144.2208  160.3662 N.ar    1  UNL1       -0.1956
     26 C         141.9489  144.6425  161.8056 C.ar    1  UNL1        0.1679
     27 C         140.6874  144.6111  162.6163 C.ar    1  UNL1        0.1942
     28 O         140.4040  144.9653  164.0461 O.2     1  UNL1       -0.4460
     29 C         138.9446  144.7312  164.3013 C.ar    1  UNL1        0.1814
     30 C         138.3259  144.2322  163.0292 C.ar    1  UNL1        0.0630
     31 C         139.4030  144.1580  161.9878 C.ar    1  UNL1        0.1245
     32 N         139.3801  143.7363  160.5485 N.ar    1  UNL1       -0.2103
     33 N         143.2333  145.0956  162.4341 N.pl3   1  UNL1       -0.3109
     34 H         143.5002  146.0418  162.3815 H       1  UNL1        0.1485
     35 C         144.1112  144.1070  163.1427 C.3     1  UNL1        0.1615
     36 C         143.8925  143.8181  164.5983 C.3     1  UNL1        0.3378
     37 F         142.6948  143.0273  165.0343 F       1  UNL1       -0.1965
     38 F         144.8716  144.3201  165.6179 F       1  UNL1       -0.1965
@<TRIPOS>BOND
     1    20    21    1
     2    21    16    1
     3    16    17    2
     4    16    18   am
     5     1    18    1
     6     1     2    1
     7     2     3    1
     8     3     4    1
     9     3     5    1
    10     3     6    1
    11     6     7   ar
    12     7     8   ar
    13     8     9   ar
    14     9    22    1
    15    22    24    1
    16    24    25   ar
    17    25    26   ar
    18    26    33    1
    19    33    35    1
    20    35    36    1
    21    36    37    1
    22    36    38    1
    23    26    27   ar
    24    27    28   ar
    25    28    29   ar
    26    29    30   ar
    27    30    31   ar
    28    31    32   ar
    29     9    10   ar
    30    10    11   ar
    31    11    12    1
    32    12    13   am
    33    13    14    2
    34    13     1    1
    35    11     6   ar
    36    32    24   ar
    37    31    27   ar
    38    18    19    1
    39    22    23    1
    40    33    34    1
    41    12    15    1
@<TRIPOS>MOLECULE
*****
 38 41 0 0 0
SMALL
GASTEIGER

@<TRIPOS>ATOM
      1 C         138.3981  139.6079  165.4085 C.3     1  UNL1        0.1517
      2 C         138.1070  140.9978  164.9251 C.3     1  UNL1        0.0332
      3 C         138.0574  141.5062  163.5148 C.3     1  UNL1        0.0222
      4 C         137.8684  142.5597  162.4638 C.3     1  UNL1        0.0045
      5 C         137.7440  142.7309  164.3223 C.3     1  UNL1        0.0045
      6 C         138.2866  140.7505  162.2395 C.ar    1  UNL1       -0.0092
      7 C         138.1412  141.6408  161.0411 C.ar    1  UNL1       -0.0018
      8 C         138.3311  141.0802  159.6629 C.ar    1  UNL1        0.0144
      9 C         138.6666  139.6293  159.4830 C.ar    1  UNL1        0.0517
     10 C         138.8120  138.7390  160.6813 C.ar    1  UNL1        0.0290
     11 C         138.6221  139.2996  162.0596 C.ar    1  UNL1        0.0475
     12 N         138.8111  138.2461  163.1106 N.am    1  UNL1       -0.2828
     13 C         138.7114  138.3833  164.6009 C.2     1  UNL1        0.2441
     14 O         138.9576  137.1303  165.3878 O.2     1  UNL1       -0.2730
     15 H         139.0295  137.3455  162.7782 H       1  UNL1        0.1549
     16 C         139.5164  139.9055  167.7345 C.2     1  UNL1        0.4021
     17 O         140.6863  140.5838  167.0853 O.2     1  UNL1       -0.2264
     18 N         138.3724  139.4176  166.8961 N.am    1  UNL1       -0.2640
     19 H         137.6046  138.9724  167.3222 H       1  UNL1        0.1532
     20 C         140.7617  139.8130  170.0129 C.3     1  UNL1        0.2573
     21 O         139.4907  139.7151  169.2222 O.3     1  UNL1       -0.4306
     22 N         138.8565  139.0687  158.1046 N.pl3   1  UNL1       -0.2825
     23 H         138.0935  139.0172  157.4847 H       1  UNL1        0.1551
     24 C         140.2091  138.5867  157.6709 C.ar    1  UNL1        0.2220
     25 N         141.4458  139.2712  158.1728 N.ar    1  UNL1       -0.1956
     26 C         142.7984  138.7891  157.7390 C.ar    1  UNL1        0.1679
     27 C         142.9142  137.6225  156.8033 C.ar    1  UNL1        0.1942
     28 O         144.1027  136.9287  156.2064 O.2     1  UNL1       -0.4460
     29 C         143.6005  135.8154  155.3356 C.ar    1  UNL1        0.1814
     30 C         142.1017  135.8212  155.3943 C.ar    1  UNL1        0.0630
     31 C         141.6775  136.9380  156.3014 C.ar    1  UNL1        0.1245
     32 N         140.3250  137.4200  156.7351 N.ar    1  UNL1       -0.2103
     33 N         144.0351  139.4737  158.2409 N.pl3   1  UNL1       -0.3109
     34 H         144.9114  139.2575  157.8477 H       1  UNL1        0.1485
     35 C         143.9366  140.4876  159.3420 C.3     1  UNL1        0.1615
     36 C         143.8307  140.0373  160.7689 C.3     1  UNL1        0.3378
     37 F         144.8663  140.4610  161.7679 F       1  UNL1       -0.1965
     38 F         142.6892  139.1633  161.1968 F       1  UNL1       -0.1965
@<TRIPOS>BOND
     1    20    21    1
     2    21    16    1
     3    16    17    2
     4    16    18   am
     5     1    18    1
     6     1     2    1
     7     2     3    1
     8     3     4    1
     9     3     5    1
    10     3     6    1
    11     6     7   ar
    12     7     8   ar
    13     8     9   ar
    14     9    22    1
    15    22    24    1
    16    24    25   ar
    17    25    26   ar
    18    26    33    1
    19    33    35    1
    20    35    36    1
    21    36    37    1
    22    36    38    1
    23    26    27   ar
    24    27    28   ar
    25    28    29   ar
    26    29    30   ar
    27    30    31   ar
    28    31    32   ar
    29     9    10   ar
    30    10    11   ar
    31    11    12    1
    32    12    13   am
    33    13    14    2
    34    13     1    1
    35    11     6   ar
    36    32    24   ar
    37    31    27   ar
    38    18    19    1
    39    22    23    1
    40    33    34    1
    41    12    15    1
@<TRIPOS>MOLECULE
*****
 38 41 0 0 0
SMALL
GASTEIGER

@<TRIPOS>ATOM
      1 C         141.0480  144.8006  159.5041 C.3     1  UNL1        0.1517
      2 C         142.2097  143.9315  159.1230 C.3     1  UNL1        0.0332
      3 C         143.2305  143.2905  160.0158 C.3     1  UNL1        0.0222
      4 C         144.4418  142.4524  160.2998 C.3     1  UNL1        0.0045
      5 C         143.6582  142.8477  158.6479 C.3     1  UNL1        0.0045
      6 C         143.3419  143.3603  161.5100 C.ar    1  UNL1       -0.0092
      7 C         144.5154  142.5708  162.0096 C.ar    1  UNL1       -0.0018
      8 C         144.8069  142.5094  163.4797 C.ar    1  UNL1        0.0144
      9 C         143.9249  143.2374  164.4502 C.ar    1  UNL1        0.0517
     10 C         142.7514  144.0269  163.9507 C.ar    1  UNL1        0.0290
     11 C         142.4599  144.0884  162.4806 C.ar    1  UNL1        0.0475
     12 N         141.2487  144.9264  162.1966 N.am    1  UNL1       -0.2828
     13 C         140.6203  145.2434  160.8720 C.2     1  UNL1        0.2441
     14 O         139.4034  146.1189  160.9217 O.2     1  UNL1       -0.2730
     15 H         140.8078  145.3205  162.9837 H       1  UNL1        0.1549
     16 C         140.8361  146.0287  157.2245 C.2     1  UNL1        0.4021
     17 O         142.3159  146.2743  157.2192 O.2     1  UNL1       -0.2264
     18 N         140.2022  145.2919  158.3669 N.am    1  UNL1       -0.2640
     19 H         139.2310  145.1307  158.3703 H       1  UNL1        0.1532
     20 C         139.0197  147.6428  156.3050 C.3     1  UNL1        0.2573
     21 O         139.9903  146.5200  156.0873 O.3     1  UNL1       -0.4306
     22 N         144.2164  143.1760  165.9204 N.pl3   1  UNL1       -0.2825
     23 H         144.9845  143.6678  166.2909 H       1  UNL1        0.1551
     24 C         143.3376  142.3651  166.8260 C.ar    1  UNL1        0.2220
     25 N         142.4742  141.2782  166.2573 N.ar    1  UNL1       -0.1956
     26 C         141.5954  140.4673  167.1630 C.ar    1  UNL1        0.1679
     27 C         141.5800  140.7433  168.6373 C.ar    1  UNL1        0.1942
     28 O         140.8222  140.1137  169.7684 O.2     1  UNL1       -0.4460
     29 C         141.2172  140.8114  171.0361 C.ar    1  UNL1        0.1814
     30 C         142.2191  141.8722  170.6885 C.ar    1  UNL1        0.0630
     31 C         142.4433  141.8301  169.2060 C.ar    1  UNL1        0.1245
     32 N         143.3221  142.6410  168.3004 N.ar    1  UNL1       -0.2103
     33 N         140.7321  139.3805  166.5943 N.pl3   1  UNL1       -0.3109
     34 H         139.9859  139.0169  167.1236 H       1  UNL1        0.1485
     35 C         141.0056  138.8477  165.2190 C.3     1  UNL1        0.1615
     36 C         140.4090  137.5405  164.7887 C.3     1  UNL1        0.3378
     37 F         139.0449  137.1440  165.2704 F       1  UNL1       -0.1965
     38 F         141.1764  136.6297  163.8768 F       1  UNL1       -0.1965
@<TRIPOS>BOND
     1    20    21    1
     2    21    16    1
     3    16    17    2
     4    16    18   am
     5     1    18    1
     6     1     2    1
     7     2     3    1
     8     3     4    1
     9     3     5    1
    10     3     6    1
    11     6     7   ar
    12     7     8   ar
    13     8     9   ar
    14     9    22    1
    15    22    24    1
    16    24    25   ar
    17    25    26   ar
    18    26    33    1
    19    33    35    1
    20    35    36    1
    21    36    37    1
    22    36    38    1
    23    26    27   ar
    24    27    28   ar
    25    28    29   ar
    26    29    30   ar
    27    30    31   ar
    28    31    32   ar
    29     9    10   ar
    30    10    11   ar
    31    11    12    1
    32    12    13   am
    33    13    14    2
    34    13     1    1
    35    11     6   ar
    36    32    24   ar
    37    31    27   ar
    38    18    19    1
    39    22    23    1
    40    33    34    1
    41    12    15    1
@<TRIPOS>MOLECULE
*****
 38 41 0 0 0
SMALL
GASTEIGER

@<TRIPOS>ATOM
      1 C         141.4859  140.8575  167.8145 C.3     1  UNL1        0.1517
      2 C         142.3510  139.7125  167.3779 C.3     1  UNL1        0.0332
      3 C         143.1350  139.5641  166.1077 C.3     1  UNL1        0.0222
      4 C         144.0502  138.8462  165.1604 C.3     1  UNL1        0.0045
      5 C         143.4298  138.2848  166.8334 C.3     1  UNL1        0.0045
      6 C         143.2475  140.5238  164.9604 C.ar    1  UNL1       -0.0092
      7 C         144.1385  139.9851  163.8806 C.ar    1  UNL1       -0.0018
      8 C         144.3857  140.7918  162.6404 C.ar    1  UNL1        0.0144
      9 C         143.7420  142.1371  162.4800 C.ar    1  UNL1        0.0517
     10 C         142.8511  142.6758  163.5597 C.ar    1  UNL1        0.0290
     11 C         142.6038  141.8691  164.7999 C.ar    1  UNL1        0.0475
     12 N         141.6886  142.5869  165.7472 N.am    1  UNL1       -0.2828
     13 C         141.1911  142.1368  167.0888 C.2     1  UNL1        0.2441
     14 O         140.2781  143.0921  167.7984 O.2     1  UNL1       -0.2730
     15 H         141.3727  143.4704  165.4489 H       1  UNL1        0.1549
     16 C         139.4965  140.0220  169.2615 C.2     1  UNL1        0.4021
     17 O         138.8214  139.4958  168.0296 O.2     1  UNL1       -0.2264
     18 N         140.8287  140.7028  169.1539 N.am    1  UNL1       -0.2640
     19 H         141.2718  141.0482  169.9624 H       1  UNL1        0.1532
     20 C         137.3928  139.4795  170.6863 C.3     1  UNL1        0.2573
     21 O         138.8393  139.8672  170.6010 O.3     1  UNL1       -0.4306
     22 N         143.9894  142.9437  161.2397 N.pl3   1  UNL1       -0.2825
     23 H         144.8920  142.9807  160.8484 H       1  UNL1        0.1551
     24 C         142.8615  143.6940  160.5957 C.ar    1  UNL1        0.2220
     25 N         141.6408  144.0439  161.3942 N.ar    1  UNL1       -0.1956
     26 C         140.5129  144.7943  160.7501 C.ar    1  UNL1        0.1679
     27 C         140.6056  145.1946  159.3075 C.ar    1  UNL1        0.1942
     28 O         139.6599  145.9346  158.4085 O.2     1  UNL1       -0.4460
     29 C         140.2961  146.0420  157.0543 C.ar    1  UNL1        0.1814
     30 C         141.6349  145.3684  157.1165 C.ar    1  UNL1        0.0630
     31 C         141.8262  144.8447  158.5090 C.ar    1  UNL1        0.1245
     32 N         142.9541  144.0944  159.1530 N.ar    1  UNL1       -0.2103
     33 N         139.2923  145.1442  161.5486 N.pl3   1  UNL1       -0.3109
     34 H         138.4400  145.3264  161.0907 H       1  UNL1        0.1485
     35 C         139.3702  145.2164  163.0449 C.3     1  UNL1        0.1615
     36 C         138.7878  144.1151  163.8803 C.3     1  UNL1        0.3378
     37 F         137.7397  144.4266  164.9071 F       1  UNL1       -0.1965
     38 F         139.2537  142.7021  163.6889 F       1  UNL1       -0.1965
@<TRIPOS>BOND
     1    20    21    1
     2    21    16    1
     3    16    17    2
     4    16    18   am
     5     1    18    1
     6     1     2    1
     7     2     3    1
     8     3     4    1
     9     3     5    1
    10     3     6    1
    11     6     7   ar
    12     7     8   ar
    13     8     9   ar
    14     9    22    1
    15    22    24    1
    16    24    25   ar
    17    25    26   ar
    18    26    33    1
    19    33    35    1
    20    35    36    1
    21    36    37    1
    22    36    38    1
    23    26    27   ar
    24    27    28   ar
    25    28    29   ar
    26    29    30   ar
    27    30    31   ar
    28    31    32   ar
    29     9    10   ar
    30    10    11   ar
    31    11    12    1
    32    12    13   am
    33    13    14    2
    34    13     1    1
    35    11     6   ar
    36    32    24   ar
    37    31    27   ar
    38    18    19    1
    39    22    23    1
    40    33    34    1
    41    12    15    1
@<TRIPOS>MOLECULE
*****
 38 41 0 0 0
SMALL
GASTEIGER

@<TRIPOS>ATOM
      1 C         140.8238  142.1054  166.5673 C.3     1  UNL1        0.1517
      2 C         139.9183  143.2060  166.0995 C.3     1  UNL1        0.0332
      3 C         139.9182  143.9197  164.7802 C.3     1  UNL1        0.0222
      4 C         139.4155  144.9266  163.7884 C.3     1  UNL1        0.0045
      5 C         138.7892  144.5783  165.5162 C.3     1  UNL1        0.0045
      6 C         140.8234  143.7092  163.6028 C.ar    1  UNL1       -0.0092
      7 C         140.4819  144.6384  162.4759 C.ar    1  UNL1       -0.0018
      8 C         141.2694  144.5913  161.2002 C.ar    1  UNL1        0.0144
      9 C         142.3984  143.6151  161.0513 C.ar    1  UNL1        0.0517
     10 C         142.7399  142.6859  162.1782 C.ar    1  UNL1        0.0290
     11 C         141.9524  142.7329  163.4539 C.ar    1  UNL1        0.0475
     12 N         142.4550  141.7261  164.4457 N.am    1  UNL1       -0.2828
     13 C         141.9528  141.4467  165.8313 C.2     1  UNL1        0.2441
     14 O         142.6750  140.3659  166.5798 O.2     1  UNL1       -0.2730
     15 H         143.2151  141.1757  164.1479 H       1  UNL1        0.1549
     16 C         139.6922  140.3950  168.1622 C.2     1  UNL1        0.4021
     17 O         139.0755  139.7031  166.9827 O.2     1  UNL1       -0.2264
     18 N         140.5663  141.5961  167.9544 N.am    1  UNL1       -0.2640
     19 H         140.9711  142.0501  168.7286 H       1  UNL1        0.1532
     20 C         140.3854  140.2213  170.6601 C.3     1  UNL1        0.2573
     21 O         139.4347  139.8857  169.5494 O.3     1  UNL1       -0.4306
     22 N         143.1859  143.5680  159.7755 N.pl3   1  UNL1       -0.2825
     23 H         143.6119  144.3854  159.4295 H       1  UNL1        0.1551
     24 C         143.3244  142.2756  159.0268 C.ar    1  UNL1        0.2220
     25 N         144.5118  142.0465  158.1393 N.ar    1  UNL1       -0.1956
     26 C         144.6503  140.7541  157.3906 C.ar    1  UNL1        0.1679
     27 C         143.6014  139.6908  157.5295 C.ar    1  UNL1        0.1942
     28 O         143.4684  138.3265  156.9204 O.2     1  UNL1       -0.4460
     29 C         142.1989  137.7124  157.4315 C.ar    1  UNL1        0.1814
     30 C         141.5473  138.6972  158.3565 C.ar    1  UNL1        0.0630
     31 C         142.4141  139.9199  158.4171 C.ar    1  UNL1        0.1245
     32 N         142.2756  141.2123  159.1657 N.ar    1  UNL1       -0.2103
     33 N         145.8376  140.5250  156.5031 N.pl3   1  UNL1       -0.3109
     34 H         146.2276  139.6244  156.4254 H       1  UNL1        0.1485
     35 C         146.4307  141.6681  155.7339 C.3     1  UNL1        0.1615
     36 C         147.7198  142.2876  156.1860 C.3     1  UNL1        0.3378
     37 F         148.9361  142.2107  155.3117 F       1  UNL1       -0.1965
     38 F         147.7925  142.9841  157.5126 F       1  UNL1       -0.1965
@<TRIPOS>BOND
     1    20    21    1
     2    21    16    1
     3    16    17    2
     4    16    18   am
     5     1    18    1
     6     1     2    1
     7     2     3    1
     8     3     4    1
     9     3     5    1
    10     3     6    1
    11     6     7   ar
    12     7     8   ar
    13     8     9   ar
    14     9    22    1
    15    22    24    1
    16    24    25   ar
    17    25    26   ar
    18    26    33    1
    19    33    35    1
    20    35    36    1
    21    36    37    1
    22    36    38    1
    23    26    27   ar
    24    27    28   ar
    25    28    29   ar
    26    29    30   ar
    27    30    31   ar
    28    31    32   ar
    29     9    10   ar
    30    10    11   ar
    31    11    12    1
    32    12    13   am
    33    13    14    2
    34    13     1    1
    35    11     6   ar
    36    32    24   ar
    37    31    27   ar
    38    18    19    1
    39    22    23    1
    40    33    34    1
    41    12    15    1
@<TRIPOS>MOLECULE
*****
 38 41 0 0 0
SMALL
GASTEIGER

@<TRIPOS>ATOM
      1 C         139.9834  138.0627  164.1438 C.3     1  UNL1        0.1517
      2 C         141.3850  138.4606  164.5006 C.3     1  UNL1        0.0332
      3 C         142.5346  138.7581  163.5842 C.3     1  UNL1        0.0222
      4 C         143.9506  139.1441  163.2737 C.3     1  UNL1        0.0045
      5 C         143.1327  138.9567  164.9454 C.3     1  UNL1        0.0045
      6 C         142.5668  138.7313  162.0848 C.ar    1  UNL1       -0.0092
      7 C         143.9235  139.0957  161.5591 C.ar    1  UNL1       -0.0018
      8 C         144.1706  139.1291  160.0800 C.ar    1  UNL1        0.0144
      9 C         143.0609  138.7981  159.1266 C.ar    1  UNL1        0.0517
     10 C         141.7041  138.4337  159.6523 C.ar    1  UNL1        0.0290
     11 C         141.4571  138.4003  161.1314 C.ar    1  UNL1        0.0475
     12 N         140.0412  138.0143  161.4420 N.am    1  UNL1       -0.2828
     13 C         139.3853  137.8641  162.7826 C.2     1  UNL1        0.2441
     14 O         137.9405  137.4621  162.7589 O.2     1  UNL1       -0.2730
     15 H         139.4664  137.8361  160.6628 H       1  UNL1        0.1549
     16 C         138.2560  138.9721  165.8581 C.2     1  UNL1        0.4021
     17 O         138.3804  140.3410  165.2573 O.2     1  UNL1       -0.2264
     18 N         139.0574  137.8330  165.3013 N.am    1  UNL1       -0.2640
     19 H         138.9757  136.9346  165.6956 H       1  UNL1        0.1532
     20 C         136.9984  137.3439  167.4447 C.3     1  UNL1        0.2573
     21 O         137.3300  138.7425  167.0156 O.3     1  UNL1       -0.4306
     22 N         143.3080  138.8314  157.6474 N.pl3   1  UNL1       -0.2825
     23 H         143.6340  139.6569  157.2213 H       1  UNL1        0.1551
     24 C         143.0583  137.6072  156.8174 C.ar    1  UNL1        0.2220
     25 N         143.2472  136.2445  157.4152 N.ar    1  UNL1       -0.1956
     26 C         142.9975  135.0202  156.5852 C.ar    1  UNL1        0.1679
     27 C         142.5589  135.1587  155.1575 C.ar    1  UNL1        0.1942
     28 O         142.2393  134.1413  154.1025 O.2     1  UNL1       -0.4460
     29 C         141.8528  134.8753  152.8527 C.ar    1  UNL1        0.1814
     30 C         141.9336  136.3462  153.1353 C.ar    1  UNL1        0.0630
     31 C         142.3699  136.5214  154.5597 C.ar    1  UNL1        0.1245
     32 N         142.6196  137.7456  155.3897 N.ar    1  UNL1       -0.2103
     33 N         143.1864  133.6575  157.1830 N.pl3   1  UNL1       -0.3109
     34 H         142.5074  133.2892  157.7934 H       1  UNL1        0.1485
     35 C         144.4100  132.8559  156.8508 C.3     1  UNL1        0.1615
     36 C         145.0686  132.0198  157.9078 C.3     1  UNL1        0.3378
     37 F         146.3388  132.4898  158.5524 F       1  UNL1       -0.1965
     38 F         144.4570  130.7136  158.3201 F       1  UNL1       -0.1965
@<TRIPOS>BOND
     1    20    21    1
     2    21    16    1
     3    16    17    2
     4    16    18   am
     5     1    18    1
     6     1     2    1
     7     2     3    1
     8     3     4    1
     9     3     5    1
    10     3     6    1
    11     6     7   ar
    12     7     8   ar
    13     8     9   ar
    14     9    22    1
    15    22    24    1
    16    24    25   ar
    17    25    26   ar
    18    26    33    1
    19    33    35    1
    20    35    36    1
    21    36    37    1
    22    36    38    1
    23    26    27   ar
    24    27    28   ar
    25    28    29   ar
    26    29    30   ar
    27    30    31   ar
    28    31    32   ar
    29     9    10   ar
    30    10    11   ar
    31    11    12    1
    32    12    13   am
    33    13    14    2
    34    13     1    1
    35    11     6   ar
    36    32    24   ar
    37    31    27   ar
    38    18    19    1
    39    22    23    1
    40    33    34    1
    41    12    15    1
@<TRIPOS>MOLECULE
*****
 38 41 0 0 0
SMALL
GASTEIGER

@<TRIPOS>ATOM
      1 C         139.3481  149.6852  154.2997 C.3     1  UNL1        0.1517
      2 C         140.1817  148.8722  153.3541 C.3     1  UNL1        0.0332
      3 C         140.7696  147.5080  153.5619 C.3     1  UNL1        0.0222
      4 C         141.5586  146.2997  153.1524 C.3     1  UNL1        0.0045
      5 C         141.2212  147.8584  152.1750 C.3     1  UNL1        0.0045
      6 C         140.6692  146.6197  154.7665 C.ar    1  UNL1       -0.0092
      7 C         141.4071  145.3303  154.5596 C.ar    1  UNL1       -0.0018
      8 C         141.4318  144.2976  155.6471 C.ar    1  UNL1        0.0144
      9 C         140.7186  144.5542  156.9415 C.ar    1  UNL1        0.0517
     10 C         139.9807  145.8437  157.1484 C.ar    1  UNL1        0.0290
     11 C         139.9560  146.8764  156.0608 C.ar    1  UNL1        0.0475
     12 N         139.1671  148.0847  156.4703 N.am    1  UNL1       -0.2828
     13 C         138.8965  149.3347  155.6866 C.2     1  UNL1        0.2441
     14 O         138.0644  150.3713  156.3815 O.2     1  UNL1       -0.2730
     15 H         138.7750  148.0531  157.3728 H       1  UNL1        0.1549
     16 C         139.7986  152.2210  153.9586 C.2     1  UNL1        0.4021
     17 O         141.1298  152.0754  154.6345 O.2     1  UNL1       -0.2264
     18 N         138.9078  151.0259  153.7913 N.am    1  UNL1       -0.2640
     19 H         138.0341  151.1215  153.3477 H       1  UNL1        0.1532
     20 C         138.2926  153.6520  152.3983 C.3     1  UNL1        0.2573
     21 O         139.3583  153.5618  153.4501 O.3     1  UNL1       -0.4306
     22 N         140.7433  143.5214  158.0291 N.pl3   1  UNL1       -0.2825
     23 H         140.6914  142.5651  157.8010 H       1  UNL1        0.1551
     24 C         140.8470  143.9456  159.4641 C.ar    1  UNL1        0.2220
     25 N         139.6150  144.3521  160.2169 N.ar    1  UNL1       -0.1956
     26 C         139.7188  144.7764  161.6520 C.ar    1  UNL1        0.1679
     27 C         141.0545  144.7941  162.3341 C.ar    1  UNL1        0.1942
     28 O         141.4643  145.1624  163.7293 O.2     1  UNL1       -0.4460
     29 C         142.9496  144.9836  163.8387 C.ar    1  UNL1        0.1814
     30 C         143.4578  144.5047  162.5111 C.ar    1  UNL1        0.0630
     31 C         142.2866  144.3876  161.5812 C.ar    1  UNL1        0.1245
     32 N         142.1829  143.9634  160.1463 N.ar    1  UNL1       -0.2103
     33 N         138.4867  145.1829  162.4049 N.pl3   1  UNL1       -0.3109
     34 H         138.1188  146.0893  162.2941 H       1  UNL1        0.1485
     35 C         137.8153  144.2083  163.3266 C.3     1  UNL1        0.1615
     36 C         138.1088  144.2424  164.7971 C.3     1  UNL1        0.3378
     37 F         139.3549  143.5982  165.3284 F       1  UNL1       -0.1965
     38 F         137.1562  144.9208  165.7365 F       1  UNL1       -0.1965
@<TRIPOS>BOND
     1    20    21    1
     2    21    16    1
     3    16    17    2
     4    16    18   am
     5     1    18    1
     6     1     2    1
     7     2     3    1
     8     3     4    1
     9     3     5    1
    10     3     6    1
    11     6     7   ar
    12     7     8   ar
    13     8     9   ar
    14     9    22    1
    15    22    24    1
    16    24    25   ar
    17    25    26   ar
    18    26    33    1
    19    33    35    1
    20    35    36    1
    21    36    37    1
    22    36    38    1
    23    26    27   ar
    24    27    28   ar
    25    28    29   ar
    26    29    30   ar
    27    30    31   ar
    28    31    32   ar
    29     9    10   ar
    30    10    11   ar
    31    11    12    1
    32    12    13   am
    33    13    14    2
    34    13     1    1
    35    11     6   ar
    36    32    24   ar
    37    31    27   ar
    38    18    19    1
    39    22    23    1
    40    33    34    1
    41    12    15    1
