@<TRIPOS>MOLECULE
*****
 47 50 0 0 0
SMALL
GASTEIGER

@<TRIPOS>ATOM
      1 C         140.6833  144.9421  160.2278 C.3     1  UNL1        0.0412
      2 C         140.3228  145.5566  158.9077 C.3     1  UNL1        0.0249
      3 C         141.2160  144.9614  157.8600 C.3     1  UNL1        0.0935
      4 N         142.1286  143.9790  158.5326 N.am    1  UNL1       -0.2795
      5 C         143.1849  143.1534  157.8598 C.2     1  UNL1        0.2256
      6 O         143.4010  143.2727  156.3803 O.2     1  UNL1       -0.2749
      7 C         141.7993  143.9671  159.9959 C.3     1  UNL1        0.0951
      8 C         140.0405  145.2489  161.5480 C.3     1  UNL1        0.0914
      9 C         140.8463  144.2368  163.8011 C.2     1  UNL1        0.2458
     10 O         141.8391  145.3517  163.9467 O.2     1  UNL1       -0.2701
     11 N         139.9469  144.1854  162.6017 N.am    1  UNL1       -0.3008
     12 H         139.2953  143.4537  162.5061 H       1  UNL1        0.1497
     13 C         140.5657  141.0464  166.9622 C.ar    1  UNL1        0.1306
     14 C         141.1584  142.3832  167.2963 C.ar    1  UNL1        0.0110
     15 C         141.2519  143.4467  166.2426 C.ar    1  UNL1        0.0032
     16 C         140.7527  143.1734  164.8548 C.ar    1  UNL1        0.0529
     17 C         140.1600  141.8366  164.5207 C.ar    1  UNL1        0.0032
     18 C         140.0665  140.7731  165.5744 C.ar    1  UNL1        0.0110
     19 C         141.6577  142.6566  168.6842 C.3     1  UNL1        0.0218
     20 C         140.3397  143.2808  169.0353 C.3     1  UNL1        0.0045
     21 C         142.9756  142.0323  168.3330 C.3     1  UNL1        0.0045
     22 C         142.1569  142.9299  170.0719 C.3     1  UNL1        0.0045
     23 C         139.4737  139.4363  165.2402 C.3     1  UNL1        0.0218
     24 C         140.8500  138.8444  165.1669 C.3     1  UNL1        0.0045
     25 C         138.0974  140.0282  165.3135 C.3     1  UNL1        0.0045
     26 C         138.8810  138.0995  164.9061 C.3     1  UNL1        0.0045
     27 C         139.2485  139.8869  168.8780 C.3     1  UNL1        0.2524
     28 O         140.4722  139.9830  168.0159 O.3     1  UNL1       -0.4721
     29 C         144.0253  142.2085  158.6666 C.3     1  UNL1        0.0853
     30 C         144.1932  140.7862  158.2204 C.3     1  UNL1        0.0096
     31 C         143.5580  139.6749  159.0024 C.3     1  UNL1        0.0012
     32 C         143.8640  139.5147  160.4620 C.3     1  UNL1        0.0087
     33 C         142.9319  140.0831  161.4907 C.3     1  UNL1        0.0446
     34 C         143.4594  140.9940  162.5591 C.ar    1  UNL1       -0.0183
     35 C         143.5739  140.5048  163.9725 C.ar    1  UNL1       -0.0017
     36 C         144.1014  141.4159  165.0410 C.ar    1  UNL1        0.0293
     37 C         144.5144  142.8160  164.6962 C.ar    1  UNL1        0.1401
     38 F         145.0420  143.7271  165.7648 F       1  UNL1       -0.2042
     39 C         144.3999  143.3052  163.2829 C.ar    1  UNL1        0.0293
     40 C         143.8724  142.3942  162.2143 C.ar    1  UNL1       -0.0017
     41 C         141.4721  139.7403  161.4507 C.ar    1  UNL1       -0.0183
     42 C         140.4482  140.8310  161.3410 C.ar    1  UNL1       -0.0017
     43 C         138.9885  140.4883  161.3010 C.ar    1  UNL1        0.0293
     44 C         138.5525  139.0547  161.3708 C.ar    1  UNL1        0.1401
     45 F         137.0927  138.7120  161.3308 F       1  UNL1       -0.2042
     46 C         139.5763  137.9639  161.4805 C.ar    1  UNL1        0.0293
     47 C         141.0361  138.3067  161.5205 C.ar    1  UNL1       -0.0017
@<TRIPOS>BOND
     1    27    28    1
     2    28    13    1
     3    13    14   ar
     4    14    19    1
     5    19    20    1
     6    19    21    1
     7    19    22    1
     8    14    15   ar
     9    15    16   ar
    10    16     9    1
    11     9    10    2
    12     9    11   am
    13    11     8    1
    14     8     1    1
    15     1     2    1
    16     2     3    1
    17     3     4    1
    18     4     5   am
    19     5     6    2
    20     5    29    1
    21    29    30    1
    22    30    31    1
    23    31    32    1
    24    32    33    1
    25    33    34    1
    26    34    35   ar
    27    35    36   ar
    28    36    37   ar
    29    37    38    1
    30    37    39   ar
    31    39    40   ar
    32    33    41    1
    33    41    42   ar
    34    42    43   ar
    35    43    44   ar
    36    44    45    1
    37    44    46   ar
    38    46    47   ar
    39     4     7    1
    40    16    17   ar
    41    17    18   ar
    42    18    23    1
    43    23    24    1
    44    23    25    1
    45    23    26    1
    46    18    13   ar
    47     7     1    1
    48    40    34   ar
    49    47    41   ar
    50    11    12    1
@<TRIPOS>MOLECULE
*****
 47 50 0 0 0
SMALL
GASTEIGER

@<TRIPOS>ATOM
      1 C         140.5133  144.9858  160.3521 C.3     1  UNL1        0.0412
      2 C         140.1285  145.5809  159.0300 C.3     1  UNL1        0.0249
      3 C         141.0348  145.0065  157.9818 C.3     1  UNL1        0.0935
      4 N         141.9796  144.0564  158.6561 N.am    1  UNL1       -0.2795
      5 C         143.0576  143.2590  157.9835 C.2     1  UNL1        0.2256
      6 O         143.2634  143.3757  156.5023 O.2     1  UNL1       -0.2749
      7 C         141.6573  144.0436  160.1210 C.3     1  UNL1        0.0951
      8 C         139.8673  145.2810  161.6734 C.3     1  UNL1        0.0914
      9 C         140.7793  144.2124  163.8588 C.2     1  UNL1        0.2458
     10 O         141.8366  145.2735  163.9364 O.2     1  UNL1       -0.2701
     11 N         139.7946  144.2162  162.7273 N.am    1  UNL1       -0.3008
     12 H         139.1007  143.5197  162.6764 H       1  UNL1        0.1497
     13 C         140.5613  141.0178  167.0206 C.ar    1  UNL1        0.1306
     14 C         141.1398  142.3617  167.3509 C.ar    1  UNL1        0.0110
     15 C         141.2124  143.4266  166.2970 C.ar    1  UNL1        0.0032
     16 C         140.7066  143.1475  164.9127 C.ar    1  UNL1        0.0529
     17 C         140.1282  141.8036  164.5824 C.ar    1  UNL1        0.0032
     18 C         140.0555  140.7387  165.6363 C.ar    1  UNL1        0.0110
     19 C         141.6456  142.6408  168.7353 C.3     1  UNL1        0.0218
     20 C         140.3512  143.3199  169.0714 C.3     1  UNL1        0.0045
     21 C         142.9401  141.9617  168.3991 C.3     1  UNL1        0.0045
     22 C         142.1515  142.9199  170.1195 C.3     1  UNL1        0.0045
     23 C         139.4770  139.3947  165.3059 C.3     1  UNL1        0.0218
     24 C         140.8609  138.8287  165.1858 C.3     1  UNL1        0.0045
     25 C         138.0932  139.9608  165.4261 C.3     1  UNL1        0.0045
     26 C         138.8986  138.0508  164.9755 C.3     1  UNL1        0.0045
     27 C         139.3169  139.9017  169.0095 C.3     1  UNL1        0.2524
     28 O         140.4887  139.9529  168.0745 O.3     1  UNL1       -0.4721
     29 C         143.9297  142.3450  158.7921 C.3     1  UNL1        0.0853
     30 C         144.1843  140.9429  158.3239 C.3     1  UNL1        0.0096
     31 C         143.5495  139.7867  159.0381 C.3     1  UNL1        0.0012
     32 C         143.8395  139.5519  160.4908 C.3     1  UNL1        0.0087
     33 C         142.9124  140.0940  161.5380 C.3     1  UNL1        0.0446
     34 C         141.4569  139.7326  161.5108 C.ar    1  UNL1       -0.0183
     35 C         140.4182  140.8105  161.4145 C.ar    1  UNL1       -0.0017
     36 C         138.9626  140.4492  161.3873 C.ar    1  UNL1        0.0293
     37 C         138.5457  139.0100  161.4564 C.ar    1  UNL1        0.1401
     38 F         137.0901  138.6486  161.4292 F       1  UNL1       -0.2042
     39 C         139.5844  137.9321  161.5527 C.ar    1  UNL1        0.0293
     40 C         141.0399  138.2934  161.5799 C.ar    1  UNL1       -0.0017
     41 C         143.4409  140.9974  162.6124 C.ar    1  UNL1       -0.0183
     42 C         143.5296  140.5080  164.0276 C.ar    1  UNL1       -0.0017
     43 C         144.0581  141.4115  165.1020 C.ar    1  UNL1        0.0293
     44 C         144.4980  142.8045  164.7612 C.ar    1  UNL1        0.1401
     45 F         145.0266  143.7080  165.8356 F       1  UNL1       -0.2042
     46 C         144.4094  143.2940  163.3461 C.ar    1  UNL1        0.0293
     47 C         143.8808  142.3905  162.2717 C.ar    1  UNL1       -0.0017
@<TRIPOS>BOND
     1    27    28    1
     2    28    13    1
     3    13    14   ar
     4    14    19    1
     5    19    20    1
     6    19    21    1
     7    19    22    1
     8    14    15   ar
     9    15    16   ar
    10    16     9    1
    11     9    10    2
    12     9    11   am
    13    11     8    1
    14     8     1    1
    15     1     2    1
    16     2     3    1
    17     3     4    1
    18     4     5   am
    19     5     6    2
    20     5    29    1
    21    29    30    1
    22    30    31    1
    23    31    32    1
    24    32    33    1
    25    33    34    1
    26    34    35   ar
    27    35    36   ar
    28    36    37   ar
    29    37    38    1
    30    37    39   ar
    31    39    40   ar
    32    33    41    1
    33    41    42   ar
    34    42    43   ar
    35    43    44   ar
    36    44    45    1
    37    44    46   ar
    38    46    47   ar
    39     4     7    1
    40    16    17   ar
    41    17    18   ar
    42    18    23    1
    43    23    24    1
    44    23    25    1
    45    23    26    1
    46    18    13   ar
    47     7     1    1
    48    40    34   ar
    49    47    41   ar
    50    11    12    1
@<TRIPOS>MOLECULE
*****
 47 50 0 0 0
SMALL
GASTEIGER

@<TRIPOS>ATOM
      1 C         140.4934  144.8775  160.3497 C.3     1  UNL1        0.0412
      2 C         140.3779  145.6763  159.0853 C.3     1  UNL1        0.0249
      3 C         141.3018  145.0725  158.0695 C.3     1  UNL1        0.0935
      4 N         141.9882  143.9005  158.7060 N.am    1  UNL1       -0.2795
      5 C         142.9971  143.0060  158.0487 C.2     1  UNL1        0.2256
      6 O         143.4016  143.2506  156.6252 O.2     1  UNL1       -0.2749
      7 C         141.4886  143.7799  160.1152 C.3     1  UNL1        0.0951
      8 C         139.7450  145.1316  161.6246 C.3     1  UNL1        0.0914
      9 C         140.6653  144.1597  163.8513 C.2     1  UNL1        0.2458
     10 O         141.6528  145.2857  163.9346 O.2     1  UNL1       -0.2701
     11 N         139.7114  144.0827  162.6963 N.am    1  UNL1       -0.3008
     12 H         139.0633  143.3436  162.6417 H       1  UNL1        0.1497
     13 C         140.5647  141.0130  167.0666 C.ar    1  UNL1        0.1306
     14 C         140.0447  140.7005  165.6948 C.ar    1  UNL1        0.0110
     15 C         140.0783  141.7494  164.6230 C.ar    1  UNL1        0.0032
     16 C         140.6318  143.1108  164.9231 C.ar    1  UNL1        0.0529
     17 C         141.1517  143.4233  166.2949 C.ar    1  UNL1        0.0032
     18 C         141.1182  142.3744  167.3667 C.ar    1  UNL1        0.0110
     19 C         139.4911  139.3390  165.3946 C.3     1  UNL1        0.0218
     20 C         138.0973  139.8861  165.4834 C.3     1  UNL1        0.0045
     21 C         140.8850  138.7919  165.3059 C.3     1  UNL1        0.0045
     22 C         138.9377  137.9776  165.0945 C.3     1  UNL1        0.0045
     23 C         141.6382  142.6870  168.7385 C.3     1  UNL1        0.0218
     24 C         142.9405  142.0266  168.3953 C.3     1  UNL1        0.0045
     25 C         140.3359  143.3474  169.0817 C.3     1  UNL1        0.0045
     26 C         142.1582  142.9995  170.1103 C.3     1  UNL1        0.0045
     27 C         139.3820  139.9119  169.1010 C.3     1  UNL1        0.2524
     28 O         140.5311  139.9641  168.1383 O.3     1  UNL1       -0.4721
     29 C         143.6016  141.8670  158.8150 C.3     1  UNL1        0.0853
     30 C         143.5006  140.4680  158.2833 C.3     1  UNL1        0.0096
     31 C         143.4587  139.3064  159.2314 C.3     1  UNL1        0.0012
     32 C         143.8954  139.4845  160.6553 C.3     1  UNL1        0.0087
     33 C         142.9443  140.0537  161.6660 C.3     1  UNL1        0.0446
     34 C         143.4453  140.9958  162.7201 C.ar    1  UNL1       -0.0183
     35 C         143.8447  142.3931  162.3488 C.ar    1  UNL1       -0.0017
     36 C         144.3458  143.3352  163.4030 C.ar    1  UNL1        0.0293
     37 C         144.4475  142.8799  164.8286 C.ar    1  UNL1        0.1401
     38 F         144.9486  143.8220  165.8829 F       1  UNL1       -0.2042
     39 C         144.0481  141.4826  165.2000 C.ar    1  UNL1        0.0293
     40 C         143.5471  140.5405  164.1457 C.ar    1  UNL1       -0.0017
     41 C         141.4920  139.6808  161.6223 C.ar    1  UNL1       -0.0183
     42 C         140.4493  140.7448  161.4469 C.ar    1  UNL1       -0.0017
     43 C         138.9971  140.3719  161.4033 C.ar    1  UNL1        0.0293
     44 C         138.5875  138.9350  161.5350 C.ar    1  UNL1        0.1401
     45 F         137.1352  138.5621  161.4914 F       1  UNL1       -0.2042
     46 C         139.6301  137.8709  161.7104 C.ar    1  UNL1        0.0293
     47 C         141.0823  138.2438  161.7540 C.ar    1  UNL1       -0.0017
@<TRIPOS>BOND
     1    27    28    1
     2    28    13    1
     3    13    14   ar
     4    14    19    1
     5    19    20    1
     6    19    21    1
     7    19    22    1
     8    14    15   ar
     9    15    16   ar
    10    16     9    1
    11     9    10    2
    12     9    11   am
    13    11     8    1
    14     8     1    1
    15     1     2    1
    16     2     3    1
    17     3     4    1
    18     4     5   am
    19     5     6    2
    20     5    29    1
    21    29    30    1
    22    30    31    1
    23    31    32    1
    24    32    33    1
    25    33    34    1
    26    34    35   ar
    27    35    36   ar
    28    36    37   ar
    29    37    38    1
    30    37    39   ar
    31    39    40   ar
    32    33    41    1
    33    41    42   ar
    34    42    43   ar
    35    43    44   ar
    36    44    45    1
    37    44    46   ar
    38    46    47   ar
    39     4     7    1
    40    16    17   ar
    41    17    18   ar
    42    18    23    1
    43    23    24    1
    44    23    25    1
    45    23    26    1
    46    18    13   ar
    47     7     1    1
    48    40    34   ar
    49    47    41   ar
    50    11    12    1
@<TRIPOS>MOLECULE
*****
 47 50 0 0 0
SMALL
GASTEIGER

@<TRIPOS>ATOM
      1 C         140.0180  144.9273  160.9446 C.3     1  UNL1        0.0412
      2 C         140.6293  145.6404  159.7751 C.3     1  UNL1        0.0249
      3 C         140.3238  144.8488  158.5382 C.3     1  UNL1        0.0935
      4 N         139.5236  143.6464  158.9433 N.am    1  UNL1       -0.2795
      5 C         139.0036  142.5824  158.0227 C.2     1  UNL1        0.2256
      6 O         139.2731  142.6679  156.5496 O.2     1  UNL1       -0.2749
      7 C         139.3346  143.6950  160.4305 C.3     1  UNL1        0.0951
      8 C         140.0793  145.3690  162.3769 C.3     1  UNL1        0.0914
      9 C         139.7998  143.8994  164.5010 C.2     1  UNL1        0.2458
     10 O         138.3401  144.2418  164.5458 O.2     1  UNL1       -0.2701
     11 N         140.6694  144.4630  163.4165 N.am    1  UNL1       -0.3008
     12 H         141.6274  144.2383  163.3871 H       1  UNL1        0.1497
     13 C         141.5700  141.1812  167.6200 C.ar    1  UNL1        0.1306
     14 C         140.5550  142.2131  168.0133 C.ar    1  UNL1        0.0110
     15 C         139.9649  143.1192  166.9736 C.ar    1  UNL1        0.0032
     16 C         140.3899  142.9933  165.5406 C.ar    1  UNL1        0.0529
     17 C         141.4050  141.9614  165.1473 C.ar    1  UNL1        0.0032
     18 C         141.9951  141.0554  166.1870 C.ar    1  UNL1        0.0110
     19 C         140.1299  142.3390  169.4463 C.3     1  UNL1        0.0218
     20 C         140.8507  143.6508  169.5449 C.3     1  UNL1        0.0045
     21 C         139.4091  141.0273  169.3477 C.3     1  UNL1        0.0045
     22 C         139.7048  142.4649  170.8793 C.3     1  UNL1        0.0045
     23 C         143.0102  140.0235  165.7936 C.3     1  UNL1        0.0218
     24 C         143.9866  141.1117  165.4586 C.3     1  UNL1        0.0045
     25 C         142.0338  138.9352  166.1286 C.3     1  UNL1        0.0045
     26 C         144.0253  138.9916  165.4002 C.3     1  UNL1        0.0045
     27 C         143.1570  140.8119  169.6436 C.3     1  UNL1        0.2524
     28 O         142.1601  140.2752  168.6596 O.3     1  UNL1       -0.4721
     29 C         138.2143  141.4328  158.5752 C.3     1  UNL1        0.0853
     30 C         138.9227  140.2139  159.0875 C.3     1  UNL1        0.0096
     31 C         138.3188  139.4067  160.1982 C.3     1  UNL1        0.0012
     32 C         139.1835  138.4985  161.0212 C.3     1  UNL1        0.0087
     33 C         139.9031  139.0341  162.2234 C.3     1  UNL1        0.0446
     34 C         139.2879  138.9047  163.5852 C.ar    1  UNL1       -0.0183
     35 C         138.7136  140.1113  164.2666 C.ar    1  UNL1       -0.0017
     36 C         138.0983  139.9818  165.6284 C.ar    1  UNL1        0.0293
     37 C         138.0573  138.6457  166.3089 C.ar    1  UNL1        0.1401
     38 F         137.4420  138.5162  167.6708 F       1  UNL1       -0.2042
     39 C         138.6315  137.4391  165.6276 C.ar    1  UNL1        0.0293
     40 C         139.2468  137.5685  164.2657 C.ar    1  UNL1       -0.0017
     41 C         141.2380  139.6993  162.0637 C.ar    1  UNL1       -0.0183
     42 C         142.4933  138.8785  162.0922 C.ar    1  UNL1       -0.0017
     43 C         143.8282  139.5437  161.9325 C.ar    1  UNL1        0.0293
     44 C         143.9080  141.0296  161.7442 C.ar    1  UNL1        0.1401
     45 F         145.2429  141.6948  161.5844 F       1  UNL1       -0.2042
     46 C         142.6528  141.8505  161.7156 C.ar    1  UNL1        0.0293
     47 C         141.3178  141.1853  161.8753 C.ar    1  UNL1       -0.0017
@<TRIPOS>BOND
     1    27    28    1
     2    28    13    1
     3    13    14   ar
     4    14    19    1
     5    19    20    1
     6    19    21    1
     7    19    22    1
     8    14    15   ar
     9    15    16   ar
    10    16     9    1
    11     9    10    2
    12     9    11   am
    13    11     8    1
    14     8     1    1
    15     1     2    1
    16     2     3    1
    17     3     4    1
    18     4     5   am
    19     5     6    2
    20     5    29    1
    21    29    30    1
    22    30    31    1
    23    31    32    1
    24    32    33    1
    25    33    34    1
    26    34    35   ar
    27    35    36   ar
    28    36    37   ar
    29    37    38    1
    30    37    39   ar
    31    39    40   ar
    32    33    41    1
    33    41    42   ar
    34    42    43   ar
    35    43    44   ar
    36    44    45    1
    37    44    46   ar
    38    46    47   ar
    39     4     7    1
    40    16    17   ar
    41    17    18   ar
    42    18    23    1
    43    23    24    1
    44    23    25    1
    45    23    26    1
    46    18    13   ar
    47     7     1    1
    48    40    34   ar
    49    47    41   ar
    50    11    12    1
@<TRIPOS>MOLECULE
*****
 47 50 0 0 0
SMALL
GASTEIGER

@<TRIPOS>ATOM
      1 C         140.4935  145.0691  160.8215 C.3     1  UNL1        0.0412
      2 C         140.2038  146.0021  159.6832 C.3     1  UNL1        0.0249
      3 C         140.4862  145.2731  158.4031 C.3     1  UNL1        0.0935
      4 N         140.9503  143.8895  158.7502 N.am    1  UNL1       -0.2795
      5 C         141.3413  142.8198  157.7740 C.2     1  UNL1        0.2256
      6 O         141.2860  143.0929  156.3001 O.2     1  UNL1       -0.2749
      7 C         140.9548  143.7635  160.2449 C.3     1  UNL1        0.0951
      8 C         140.3474  145.3862  162.2804 C.3     1  UNL1        0.0914
      9 C         139.5844  143.9249  164.2885 C.2     1  UNL1        0.2458
     10 O         138.2284  144.5642  164.2384 O.2     1  UNL1       -0.2701
     11 N         140.6439  144.3359  163.3095 N.am    1  UNL1       -0.3008
     12 H         141.5339  143.9164  163.3424 H       1  UNL1        0.1497
     13 C         140.4741  140.7742  167.3758 C.ar    1  UNL1        0.1306
     14 C         139.8371  140.3894  166.0734 C.ar    1  UNL1        0.0110
     15 C         139.5406  141.4396  165.0443 C.ar    1  UNL1        0.0032
     16 C         139.8810  142.8747  165.3176 C.ar    1  UNL1        0.0529
     17 C         140.5179  143.2595  166.6200 C.ar    1  UNL1        0.0032
     18 C         140.8144  142.2092  167.6491 C.ar    1  UNL1        0.0110
     19 C         139.4967  138.9543  165.8001 C.3     1  UNL1        0.0218
     20 C         140.8906  138.7190  165.2986 C.3     1  UNL1        0.0045
     21 C         138.1027  139.1895  166.3016 C.3     1  UNL1        0.0045
     22 C         139.1562  137.5192  165.5268 C.3     1  UNL1        0.0045
     23 C         141.4514  142.5941  168.9515 C.3     1  UNL1        0.0218
     24 C         142.8087  142.4601  168.3272 C.3     1  UNL1        0.0045
     25 C         140.0941  142.7281  169.5758 C.3     1  UNL1        0.0045
     26 C         142.0884  142.9789  170.2538 C.3     1  UNL1        0.0045
     27 C         142.1641  139.1881  168.5498 C.3     1  UNL1        0.2524
     28 O         140.7706  139.7239  168.4049 O.3     1  UNL1       -0.4721
     29 C         141.7876  141.4770  158.2717 C.3     1  UNL1        0.0853
     30 C         143.2233  141.2547  158.6449 C.3     1  UNL1        0.0096
     31 C         143.6562  139.9331  159.2070 C.3     1  UNL1        0.0012
     32 C         143.8689  139.7798  160.6838 C.3     1  UNL1        0.0087
     33 C         142.8838  140.3698  161.6489 C.3     1  UNL1        0.0446
     34 C         141.4823  139.8387  161.7088 C.ar    1  UNL1       -0.0183
     35 C         141.2435  138.3603  161.7933 C.ar    1  UNL1       -0.0017
     36 C         139.8419  137.8292  161.8532 C.ar    1  UNL1        0.0293
     37 C         138.6792  138.7765  161.8285 C.ar    1  UNL1        0.1401
     38 F         137.2776  138.2454  161.8884 F       1  UNL1       -0.2042
     39 C         138.9180  140.2549  161.7440 C.ar    1  UNL1        0.0293
     40 C         140.3196  140.7861  161.6841 C.ar    1  UNL1       -0.0017
     41 C         143.3003  141.4910  162.5541 C.ar    1  UNL1       -0.0183
     42 C         143.1565  141.3480  164.0403 C.ar    1  UNL1       -0.0017
     43 C         143.5730  142.4692  164.9455 C.ar    1  UNL1        0.0293
     44 C         144.1333  143.7335  164.3645 C.ar    1  UNL1        0.1401
     45 F         144.5498  144.8547  165.2697 F       1  UNL1       -0.2042
     46 C         144.2771  143.8766  162.8783 C.ar    1  UNL1        0.0293
     47 C         143.8606  142.7554  161.9731 C.ar    1  UNL1       -0.0017
@<TRIPOS>BOND
     1    27    28    1
     2    28    13    1
     3    13    14   ar
     4    14    19    1
     5    19    20    1
     6    19    21    1
     7    19    22    1
     8    14    15   ar
     9    15    16   ar
    10    16     9    1
    11     9    10    2
    12     9    11   am
    13    11     8    1
    14     8     1    1
    15     1     2    1
    16     2     3    1
    17     3     4    1
    18     4     5   am
    19     5     6    2
    20     5    29    1
    21    29    30    1
    22    30    31    1
    23    31    32    1
    24    32    33    1
    25    33    34    1
    26    34    35   ar
    27    35    36   ar
    28    36    37   ar
    29    37    38    1
    30    37    39   ar
    31    39    40   ar
    32    33    41    1
    33    41    42   ar
    34    42    43   ar
    35    43    44   ar
    36    44    45    1
    37    44    46   ar
    38    46    47   ar
    39     4     7    1
    40    16    17   ar
    41    17    18   ar
    42    18    23    1
    43    23    24    1
    44    23    25    1
    45    23    26    1
    46    18    13   ar
    47     7     1    1
    48    40    34   ar
    49    47    41   ar
    50    11    12    1
@<TRIPOS>MOLECULE
*****
 47 50 0 0 0
SMALL
GASTEIGER

@<TRIPOS>ATOM
      1 C         140.0149  144.7678  160.8236 C.3     1  UNL1        0.0412
      2 C         140.7097  145.4657  159.6921 C.3     1  UNL1        0.0249
      3 C         140.4237  144.7039  158.4321 C.3     1  UNL1        0.0935
      4 N         139.5521  143.5351  158.7848 N.am    1  UNL1       -0.2795
      5 C         139.0255  142.5073  157.8275 C.2     1  UNL1        0.2256
      6 O         139.3639  142.5978  156.3690 O.2     1  UNL1       -0.2749
      7 C         139.2995  143.5746  160.2628 C.3     1  UNL1        0.0951
      8 C         140.0326  145.1891  162.2632 C.3     1  UNL1        0.0914
      9 C         139.8110  143.9228  164.5209 C.2     1  UNL1        0.2458
     10 O         138.4287  144.4781  164.6967 O.2     1  UNL1       -0.2701
     11 N         140.6129  144.2782  163.3041 N.am    1  UNL1       -0.3008
     12 H         141.5201  143.9137  163.1887 H       1  UNL1        0.1497
     13 C         141.5519  141.1902  167.6438 C.ar    1  UNL1        0.1306
     14 C         140.5496  142.2349  168.0359 C.ar    1  UNL1        0.0110
     15 C         139.9693  143.1458  166.9950 C.ar    1  UNL1        0.0032
     16 C         140.3913  143.0119  165.5618 C.ar    1  UNL1        0.0529
     17 C         141.3936  141.9672  165.1697 C.ar    1  UNL1        0.0032
     18 C         141.9740  141.0564  166.2106 C.ar    1  UNL1        0.0110
     19 C         140.1275  142.3688  169.4691 C.3     1  UNL1        0.0218
     20 C         139.4141  141.0523  169.3821 C.3     1  UNL1        0.0045
     21 C         140.8410  143.6854  169.5562 C.3     1  UNL1        0.0045
     22 C         139.7055  142.5028  170.9023 C.3     1  UNL1        0.0045
     23 C         142.9764  140.0116  165.8184 C.3     1  UNL1        0.0218
     24 C         143.9664  141.0874  165.4831 C.3     1  UNL1        0.0045
     25 C         141.9864  138.9358  166.1536 C.3     1  UNL1        0.0045
     26 C         143.9787  138.9670  165.4261 C.3     1  UNL1        0.0045
     27 C         143.1422  140.8042  169.6616 C.3     1  UNL1        0.2524
     28 O         142.1323  140.2794  168.6847 O.3     1  UNL1       -0.4721
     29 C         138.1605  141.3890  158.3287 C.3     1  UNL1        0.0853
     30 C         138.7892  140.1556  158.9061 C.3     1  UNL1        0.0096
     31 C         138.2696  139.5797  160.1900 C.3     1  UNL1        0.0012
     32 C         139.1085  138.6131  160.9721 C.3     1  UNL1        0.0087
     33 C         139.8592  139.0809  162.1836 C.3     1  UNL1        0.0446
     34 C         141.2130  139.7085  162.0311 C.ar    1  UNL1       -0.0183
     35 C         141.3321  141.1814  161.7737 C.ar    1  UNL1       -0.0017
     36 C         142.6859  141.8090  161.6212 C.ar    1  UNL1        0.0293
     37 C         143.9206  140.9637  161.7260 C.ar    1  UNL1        0.1401
     38 F         145.2744  141.5914  161.5734 F       1  UNL1       -0.2042
     39 C         143.8015  139.4908  161.9833 C.ar    1  UNL1        0.0293
     40 C         142.4477  138.8632  162.1359 C.ar    1  UNL1       -0.0017
     41 C         139.2560  138.9210  163.5476 C.ar    1  UNL1       -0.0183
     42 C         138.6856  140.1115  164.2598 C.ar    1  UNL1       -0.0017
     43 C         138.0824  139.9516  165.6238 C.ar    1  UNL1        0.0293
     44 C         138.0497  138.6011  166.2758 C.ar    1  UNL1        0.1401
     45 F         137.4465  138.4412  167.6398 F       1  UNL1       -0.2042
     46 C         138.6201  137.4105  165.5636 C.ar    1  UNL1        0.0293
     47 C         139.2233  137.5704  164.1996 C.ar    1  UNL1       -0.0017
@<TRIPOS>BOND
     1    27    28    1
     2    28    13    1
     3    13    14   ar
     4    14    19    1
     5    19    20    1
     6    19    21    1
     7    19    22    1
     8    14    15   ar
     9    15    16   ar
    10    16     9    1
    11     9    10    2
    12     9    11   am
    13    11     8    1
    14     8     1    1
    15     1     2    1
    16     2     3    1
    17     3     4    1
    18     4     5   am
    19     5     6    2
    20     5    29    1
    21    29    30    1
    22    30    31    1
    23    31    32    1
    24    32    33    1
    25    33    34    1
    26    34    35   ar
    27    35    36   ar
    28    36    37   ar
    29    37    38    1
    30    37    39   ar
    31    39    40   ar
    32    33    41    1
    33    41    42   ar
    34    42    43   ar
    35    43    44   ar
    36    44    45    1
    37    44    46   ar
    38    46    47   ar
    39     4     7    1
    40    16    17   ar
    41    17    18   ar
    42    18    23    1
    43    23    24    1
    44    23    25    1
    45    23    26    1
    46    18    13   ar
    47     7     1    1
    48    40    34   ar
    49    47    41   ar
    50    11    12    1
@<TRIPOS>MOLECULE
*****
 47 50 0 0 0
SMALL
GASTEIGER

@<TRIPOS>ATOM
      1 C         140.1086  145.0618  161.0295 C.3     1  UNL1        0.0412
      2 C         140.3515  145.8560  159.7804 C.3     1  UNL1        0.0249
      3 C         140.0498  144.9747  158.6047 C.3     1  UNL1        0.0935
      4 N         139.6204  143.6358  159.1272 N.am    1  UNL1       -0.2795
      5 C         139.2242  142.4510  158.2969 C.2     1  UNL1        0.2256
      6 O         139.2365  142.5464  156.8000 O.2     1  UNL1       -0.2749
      7 C         139.6567  143.6896  160.6258 C.3     1  UNL1        0.0951
      8 C         140.2863  145.5535  162.4355 C.3     1  UNL1        0.0914
      9 C         139.9077  143.8772  164.3840 C.2     1  UNL1        0.2458
     10 O         138.4239  144.0342  164.2307 O.2     1  UNL1       -0.2701
     11 N         140.8389  144.6369  163.4864 N.am    1  UNL1       -0.3008
     12 H         141.8129  144.5338  163.5869 H       1  UNL1        0.1497
     13 C         141.5656  141.1272  167.5366 C.ar    1  UNL1        0.1306
     14 C         142.0133  140.9907  166.1115 C.ar    1  UNL1        0.0110
     15 C         141.4607  141.9074  165.0606 C.ar    1  UNL1        0.0032
     16 C         140.4604  142.9605  165.4348 C.ar    1  UNL1        0.0529
     17 C         140.0127  143.0971  166.8599 C.ar    1  UNL1        0.0032
     18 C         140.5653  142.1804  167.9108 C.ar    1  UNL1        0.0110
     19 C         143.0137  139.9375  165.7373 C.3     1  UNL1        0.0218
     20 C         142.0094  138.8700  166.0566 C.3     1  UNL1        0.0045
     21 C         144.0180  141.0049  165.4180 C.3     1  UNL1        0.0045
     22 C         144.0141  138.8843  165.3630 C.3     1  UNL1        0.0045
     23 C         140.1175  142.3170  169.3359 C.3     1  UNL1        0.0218
     24 C         139.4273  140.9883  169.2463 C.3     1  UNL1        0.0045
     25 C         140.8078  143.6457  169.4255 C.3     1  UNL1        0.0045
     26 C         139.6698  142.4535  170.7610 C.3     1  UNL1        0.0045
     27 C         143.0817  140.7363  169.6099 C.3     1  UNL1        0.2524
     28 O         142.1183  140.2106  168.5875 O.3     1  UNL1       -0.4721
     29 C         138.8157  141.1709  158.9635 C.3     1  UNL1        0.0853
     30 C         139.5439  139.8971  158.6514 C.3     1  UNL1        0.0096
     31 C         139.5307  138.7652  159.6356 C.3     1  UNL1        0.0012
     32 C         138.8740  138.9414  160.9725 C.3     1  UNL1        0.0087
     33 C         139.7053  139.2547  162.1811 C.3     1  UNL1        0.0446
     34 C         139.1473  139.0275  163.5547 C.ar    1  UNL1       -0.0183
     35 C         138.6119  140.1829  164.3473 C.ar    1  UNL1       -0.0017
     36 C         138.0539  139.9556  165.7210 C.ar    1  UNL1        0.0293
     37 C         138.0313  138.5729  166.3021 C.ar    1  UNL1        0.1401
     38 F         137.4733  138.3456  167.6758 F       1  UNL1       -0.2042
     39 C         138.5667  137.4175  165.5095 C.ar    1  UNL1        0.0293
     40 C         139.1248  137.6448  164.1358 C.ar    1  UNL1       -0.0017
     41 C         141.0947  139.7953  162.0160 C.ar    1  UNL1       -0.0183
     42 C         141.3061  141.2616  161.7808 C.ar    1  UNL1       -0.0017
     43 C         142.6955  141.8022  161.6157 C.ar    1  UNL1        0.0293
     44 C         143.8737  140.8764  161.6857 C.ar    1  UNL1        0.1401
     45 F         145.2631  141.4170  161.5206 F       1  UNL1       -0.2042
     46 C         143.6624  139.4101  161.9209 C.ar    1  UNL1        0.0293
     47 C         142.2730  138.8695  162.0860 C.ar    1  UNL1       -0.0017
@<TRIPOS>BOND
     1    27    28    1
     2    28    13    1
     3    13    14   ar
     4    14    19    1
     5    19    20    1
     6    19    21    1
     7    19    22    1
     8    14    15   ar
     9    15    16   ar
    10    16     9    1
    11     9    10    2
    12     9    11   am
    13    11     8    1
    14     8     1    1
    15     1     2    1
    16     2     3    1
    17     3     4    1
    18     4     5   am
    19     5     6    2
    20     5    29    1
    21    29    30    1
    22    30    31    1
    23    31    32    1
    24    32    33    1
    25    33    34    1
    26    34    35   ar
    27    35    36   ar
    28    36    37   ar
    29    37    38    1
    30    37    39   ar
    31    39    40   ar
    32    33    41    1
    33    41    42   ar
    34    42    43   ar
    35    43    44   ar
    36    44    45    1
    37    44    46   ar
    38    46    47   ar
    39     4     7    1
    40    16    17   ar
    41    17    18   ar
    42    18    23    1
    43    23    24    1
    44    23    25    1
    45    23    26    1
    46    18    13   ar
    47     7     1    1
    48    40    34   ar
    49    47    41   ar
    50    11    12    1
@<TRIPOS>MOLECULE
*****
 47 50 0 0 0
SMALL
GASTEIGER

@<TRIPOS>ATOM
      1 C         141.6591  143.9185  159.6496 C.3     1  UNL1        0.0412
      2 C         142.6653  143.8855  158.5376 C.3     1  UNL1        0.0249
      3 C         141.9674  143.4187  157.2947 C.3     1  UNL1        0.0935
      4 N         140.5298  143.1631  157.6385 N.am    1  UNL1       -0.2795
      5 C         139.4690  142.6830  156.6929 C.2     1  UNL1        0.2256
      6 O         139.8099  142.4143  155.2571 O.2     1  UNL1       -0.2749
      7 C         140.3393  143.4721  159.0940 C.3     1  UNL1        0.0951
      8 C         141.9259  144.3264  161.0683 C.3     1  UNL1        0.0914
      9 C         141.6333  143.7108  163.5753 C.2     1  UNL1        0.2458
     10 O         141.3731  145.1521  163.8989 O.2     1  UNL1       -0.2701
     11 N         141.9098  143.2979  162.1600 N.am    1  UNL1       -0.3008
     12 H         142.0806  142.3519  161.9477 H       1  UNL1        0.1497
     13 C         141.5848  140.6252  166.8506 C.ar    1  UNL1        0.1306
     14 C         141.6666  142.0829  167.1946 C.ar    1  UNL1        0.0110
     15 C         141.6827  143.1114  166.1028 C.ar    1  UNL1        0.0032
     16 C         141.6172  142.6823  164.6671 C.ar    1  UNL1        0.0529
     17 C         141.5355  141.2246  164.3231 C.ar    1  UNL1        0.0032
     18 C         141.5193  140.1961  165.4148 C.ar    1  UNL1        0.0110
     19 C         141.7321  142.5122  168.6304 C.3     1  UNL1        0.0218
     20 C         143.2295  142.4365  168.5847 C.3     1  UNL1        0.0045
     21 C         140.2348  142.5879  168.6761 C.3     1  UNL1        0.0045
     22 C         141.7976  142.9415  170.0662 C.3     1  UNL1        0.0045
     23 C         141.4376  138.7383  165.0707 C.3     1  UNL1        0.0218
     24 C         139.9565  138.7658  165.3064 C.3     1  UNL1        0.0045
     25 C         142.9187  138.7108  164.8351 C.3     1  UNL1        0.0045
     26 C         141.3558  137.2806  164.7267 C.3     1  UNL1        0.0045
     27 C         142.8588  139.0416  168.4689 C.3     1  UNL1        0.2524
     28 O         141.5687  139.5967  167.9423 O.3     1  UNL1       -0.4721
     29 C         138.0672  142.4715  157.1831 C.3     1  UNL1        0.0853
     30 C         137.5752  141.0844  157.4726 C.3     1  UNL1        0.0096
     31 C         138.2342  140.2624  158.5403 C.3     1  UNL1        0.0012
     32 C         137.7505  140.3469  159.9576 C.3     1  UNL1        0.0087
     33 C         138.7273  140.5864  161.0705 C.3     1  UNL1        0.0446
     34 C         138.4170  141.5946  162.1368 C.ar    1  UNL1       -0.0183
     35 C         138.1947  141.1465  163.5509 C.ar    1  UNL1       -0.0017
     36 C         137.8844  142.1548  164.6172 C.ar    1  UNL1        0.0293
     37 C         137.7964  143.6112  164.2695 C.ar    1  UNL1        0.1401
     38 F         137.4860  144.6195  165.3358 F       1  UNL1       -0.2042
     39 C         138.0186  144.0594  162.8554 C.ar    1  UNL1        0.0293
     40 C         138.3289  143.0511  161.7890 C.ar    1  UNL1       -0.0017
     41 C         140.0144  139.8175  161.1170 C.ar    1  UNL1       -0.0183
     42 C         141.3084  140.5005  160.7866 C.ar    1  UNL1       -0.0017
     43 C         142.5956  139.7316  160.8331 C.ar    1  UNL1        0.0293
     44 C         142.5887  138.2798  161.2101 C.ar    1  UNL1        0.1401
     45 F         143.8758  137.5109  161.2566 F       1  UNL1       -0.2042
     46 C         141.2947  137.5968  161.5405 C.ar    1  UNL1        0.0293
     47 C         140.0076  138.3656  161.4940 C.ar    1  UNL1       -0.0017
@<TRIPOS>BOND
     1    27    28    1
     2    28    13    1
     3    13    14   ar
     4    14    19    1
     5    19    20    1
     6    19    21    1
     7    19    22    1
     8    14    15   ar
     9    15    16   ar
    10    16     9    1
    11     9    10    2
    12     9    11   am
    13    11     8    1
    14     8     1    1
    15     1     2    1
    16     2     3    1
    17     3     4    1
    18     4     5   am
    19     5     6    2
    20     5    29    1
    21    29    30    1
    22    30    31    1
    23    31    32    1
    24    32    33    1
    25    33    34    1
    26    34    35   ar
    27    35    36   ar
    28    36    37   ar
    29    37    38    1
    30    37    39   ar
    31    39    40   ar
    32    33    41    1
    33    41    42   ar
    34    42    43   ar
    35    43    44   ar
    36    44    45    1
    37    44    46   ar
    38    46    47   ar
    39     4     7    1
    40    16    17   ar
    41    17    18   ar
    42    18    23    1
    43    23    24    1
    44    23    25    1
    45    23    26    1
    46    18    13   ar
    47     7     1    1
    48    40    34   ar
    49    47    41   ar
    50    11    12    1
@<TRIPOS>MOLECULE
*****
 47 50 0 0 0
SMALL
GASTEIGER

@<TRIPOS>ATOM
      1 C         138.3316  140.4666  164.9544 C.3     1  UNL1        0.0412
      2 C         138.0428  139.2310  165.7543 C.3     1  UNL1        0.0249
      3 C         138.9083  139.2589  166.9791 C.3     1  UNL1        0.0935
      4 N         139.7320  140.5118  166.9361 N.am    1  UNL1       -0.2795
      5 C         140.7360  140.9426  167.9640 C.2     1  UNL1        0.2256
      6 O         140.9879  140.0880  169.1707 O.2     1  UNL1       -0.2749
      7 C         139.3756  141.2582  165.6848 C.3     1  UNL1        0.0951
      8 C         137.6891  140.8443  163.6526 C.3     1  UNL1        0.0914
      9 C         138.5093  142.1484  161.5606 C.2     1  UNL1        0.2458
     10 O         137.6837  143.3306  161.9739 O.2     1  UNL1       -0.2701
     11 N         138.5120  140.9053  162.3999 N.am    1  UNL1       -0.3008
     12 H         139.0539  140.1294  162.1287 H       1  UNL1        0.1497
     13 C         140.9781  142.3314  157.8027 C.ar    1  UNL1        0.1306
     14 C         140.0066  143.4304  158.1161 C.ar    1  UNL1        0.0110
     15 C         139.1837  143.3694  159.3687 C.ar    1  UNL1        0.0032
     16 C         139.3323  142.2094  160.3080 C.ar    1  UNL1        0.0529
     17 C         140.3038  141.1104  159.9946 C.ar    1  UNL1        0.0032
     18 C         141.1267  141.1714  158.7420 C.ar    1  UNL1        0.0110
     19 C         139.8579  144.5905  157.1768 C.3     1  UNL1        0.0218
     20 C         140.8239  145.3848  158.0049 C.3     1  UNL1        0.0045
     21 C         138.8919  143.7961  156.3487 C.3     1  UNL1        0.0045
     22 C         139.7092  145.7504  156.2375 C.3     1  UNL1        0.0045
     23 C         142.0983  140.0723  158.4287 C.3     1  UNL1        0.0218
     24 C         141.0975  139.4527  157.4989 C.3     1  UNL1        0.0045
     25 C         143.0991  140.6919  159.3584 C.3     1  UNL1        0.0045
     26 C         143.0698  138.9732  158.1153 C.3     1  UNL1        0.0045
     27 C         143.1619  143.0227  156.5767 C.3     1  UNL1        0.2524
     28 O         141.8010  142.3924  156.5501 O.3     1  UNL1       -0.4721
     29 C         141.4880  142.2281  167.7852 C.3     1  UNL1        0.0853
     30 C         142.9872  142.2195  167.7369 C.3     1  UNL1        0.0096
     31 C         143.7066  142.9546  166.6451 C.3     1  UNL1        0.0012
     32 C         144.0218  142.2590  165.3542 C.3     1  UNL1        0.0087
     33 C         142.9178  141.9132  164.3994 C.3     1  UNL1        0.0446
     34 C         142.2697  142.9898  163.5804 C.ar    1  UNL1       -0.0183
     35 C         142.7615  143.2747  162.1923 C.ar    1  UNL1       -0.0017
     36 C         142.1134  144.3514  161.3732 C.ar    1  UNL1        0.0293
     37 C         140.9735  145.1431  161.9423 C.ar    1  UNL1        0.1401
     38 F         140.3254  146.2198  161.1233 F       1  UNL1       -0.2042
     39 C         140.4818  144.8582  163.3305 C.ar    1  UNL1        0.0293
     40 C         141.1299  143.7815  164.1495 C.ar    1  UNL1       -0.0017
     41 C         142.4619  140.4906  164.2638 C.ar    1  UNL1       -0.0183
     42 C         142.7531  139.5024  165.3540 C.ar    1  UNL1       -0.0017
     43 C         142.2972  138.0798  165.2183 C.ar    1  UNL1        0.0293
     44 C         141.5500  137.6454  163.9924 C.ar    1  UNL1        0.1401
     45 F         141.0941  136.2228  163.8567 F       1  UNL1       -0.2042
     46 C         141.2587  138.6336  162.9021 C.ar    1  UNL1        0.0293
     47 C         141.7146  140.0562  163.0377 C.ar    1  UNL1       -0.0017
@<TRIPOS>BOND
     1    27    28    1
     2    28    13    1
     3    13    14   ar
     4    14    19    1
     5    19    20    1
     6    19    21    1
     7    19    22    1
     8    14    15   ar
     9    15    16   ar
    10    16     9    1
    11     9    10    2
    12     9    11   am
    13    11     8    1
    14     8     1    1
    15     1     2    1
    16     2     3    1
    17     3     4    1
    18     4     5   am
    19     5     6    2
    20     5    29    1
    21    29    30    1
    22    30    31    1
    23    31    32    1
    24    32    33    1
    25    33    34    1
    26    34    35   ar
    27    35    36   ar
    28    36    37   ar
    29    37    38    1
    30    37    39   ar
    31    39    40   ar
    32    33    41    1
    33    41    42   ar
    34    42    43   ar
    35    43    44   ar
    36    44    45    1
    37    44    46   ar
    38    46    47   ar
    39     4     7    1
    40    16    17   ar
    41    17    18   ar
    42    18    23    1
    43    23    24    1
    44    23    25    1
    45    23    26    1
    46    18    13   ar
    47     7     1    1
    48    40    34   ar
    49    47    41   ar
    50    11    12    1
