@<TRIPOS>MOLECULE
*****
 26 27 0 0 0
SMALL
GASTEIGER

@<TRIPOS>ATOM
      1 N         142.1084  144.4810  161.4586 N.3     1  UNL1       -0.2706
      2 C         141.7424  145.1382  162.7562 C.3     1  UNL1        0.0722
      3 C         142.5665  144.8853  163.9837 C.3     1  UNL1        0.0191
      4 C         143.7568  143.9752  163.9136 C.3     1  UNL1        0.0224
      5 C         144.1228  143.3179  162.6160 C.3     1  UNL1        0.0191
      6 C         143.2986  143.5708  161.3884 C.3     1  UNL1        0.0722
      7 C         141.2843  144.7339  160.2310 C.3     1  UNL1        0.1046
      8 C         140.2493  143.7358  159.8038 C.3     1  UNL1        0.1592
      9 O         138.8666  143.7948  160.3824 O.3     1  UNL1       -0.3571
     10 C         138.4417  141.7322  160.1278 C.3     1  UNL1        0.0296
     11 C         138.3805  142.6936  161.2775 C.3     1  UNL1        0.0930
     12 C         138.3193  143.6550  162.4272 C.3     1  UNL1        0.0296
     13 C         137.8944  141.5924  162.1725 C.3     1  UNL1        0.0296
     14 C         144.5809  143.7223  165.1411 C.3     1  UNL1        0.0897
     15 N         143.9192  143.2679  166.4083 N.am    1  UNL1       -0.3009
     16 C         143.1786  141.9640  166.4418 C.2     1  UNL1        0.2459
     17 O         143.0997  141.1143  165.2082 O.2     1  UNL1       -0.2701
     18 H         143.9710  143.8256  167.2179 H       1  UNL1        0.1497
     19 C         142.5169  141.5096  167.7090 C.ar    1  UNL1        0.0550
     20 C         141.5045  142.3876  168.3830 C.ar    1  UNL1        0.0160
     21 C         140.8428  141.9333  169.6502 C.ar    1  UNL1        0.0587
     22 CL        139.8305  142.8113  170.3242 Cl      1  UNL1       -0.0822
     23 C         141.1935  140.6010  170.2434 C.ar    1  UNL1        0.0228
     24 C         142.2059  139.7230  169.5694 C.ar    1  UNL1        0.0587
     25 CL        142.5566  138.3906  170.1626 Cl      1  UNL1       -0.0822
     26 C         142.8676  140.1773  168.3022 C.ar    1  UNL1        0.0160
@<TRIPOS>BOND
     1    10    11    1
     2    11    12    1
     3    11    13    1
     4    11     9    1
     5     9     8    1
     6     8     7    1
     7     7     1    1
     8     1     2    1
     9     2     3    1
    10     3     4    1
    11     4    14    1
    12    14    15    1
    13    15    16   am
    14    16    17    2
    15    16    19    1
    16    19    20   ar
    17    20    21   ar
    18    21    22    1
    19    21    23   ar
    20    23    24   ar
    21    24    25    1
    22    24    26   ar
    23     4     5    1
    24     5     6    1
    25     6     1    1
    26    26    19   ar
    27    15    18    1
@<TRIPOS>MOLECULE
*****
 26 27 0 0 0
SMALL
GASTEIGER

@<TRIPOS>ATOM
      1 N         140.4657  138.2290  162.0386 N.3     1  UNL1       -0.2706
      2 C         140.3135  137.4341  163.3015 C.3     1  UNL1        0.0722
      3 C         141.3546  137.5286  164.3773 C.3     1  UNL1        0.0191
      4 C         142.5478  138.4180  164.1901 C.3     1  UNL1        0.0224
      5 C         142.7000  139.2129  162.9272 C.3     1  UNL1        0.0191
      6 C         141.6589  139.1184  161.8515 C.3     1  UNL1        0.0722
      7 C         139.4246  138.1345  160.9629 C.3     1  UNL1        0.1046
      8 C         138.2192  139.0261  161.0053 C.3     1  UNL1        0.1592
      9 O         137.6317  139.4308  162.3248 O.3     1  UNL1       -0.3571
     10 C         138.0115  140.1723  164.2757 C.3     1  UNL1        0.0296
     11 C         137.9471  140.7777  162.9048 C.3     1  UNL1        0.0930
     12 C         137.8828  141.3831  161.5340 C.3     1  UNL1        0.0296
     13 C         138.2626  142.1246  163.4848 C.3     1  UNL1        0.0296
     14 C         143.5889  138.5126  165.2659 C.3     1  UNL1        0.0897
     15 N         143.2028  138.9538  166.6465 N.am    1  UNL1       -0.3009
     16 C         142.7765  140.3713  166.8891 C.2     1  UNL1        0.2459
     17 O         142.7363  141.3476  165.7511 O.2     1  UNL1       -0.2701
     18 H         143.2292  138.3130  167.3934 H       1  UNL1        0.1497
     19 C         142.3904  140.8125  168.2699 C.ar    1  UNL1        0.0550
     20 C         143.0695  141.9937  168.8971 C.ar    1  UNL1        0.0160
     21 C         142.6834  142.4349  170.2779 C.ar    1  UNL1        0.0587
     22 CL        143.3625  143.6162  170.9051 Cl      1  UNL1       -0.0822
     23 C         141.6183  141.6948  171.0313 C.ar    1  UNL1        0.0228
     24 C         140.9392  140.5134  170.4040 C.ar    1  UNL1        0.0587
     25 CL        139.8741  139.7733  171.1574 Cl      1  UNL1       -0.0822
     26 C         141.3253  140.0723  169.0233 C.ar    1  UNL1        0.0160
@<TRIPOS>BOND
     1    10    11    1
     2    11    12    1
     3    11    13    1
     4    11     9    1
     5     9     8    1
     6     8     7    1
     7     7     1    1
     8     1     2    1
     9     2     3    1
    10     3     4    1
    11     4    14    1
    12    14    15    1
    13    15    16   am
    14    16    17    2
    15    16    19    1
    16    19    20   ar
    17    20    21   ar
    18    21    22    1
    19    21    23   ar
    20    23    24   ar
    21    24    25    1
    22    24    26   ar
    23     4     5    1
    24     5     6    1
    25     6     1    1
    26    26    19   ar
    27    15    18    1
@<TRIPOS>MOLECULE
*****
 26 27 0 0 0
SMALL
GASTEIGER

@<TRIPOS>ATOM
      1 N         140.1334  142.5664  165.1747 N.3     1  UNL1       -0.2706
      2 C         139.2292  143.7531  165.3299 C.3     1  UNL1        0.0722
      3 C         139.2857  144.8743  164.3350 C.3     1  UNL1        0.0191
      4 C         140.2464  144.8087  163.1849 C.3     1  UNL1        0.0224
      5 C         141.1506  143.6220  163.0297 C.3     1  UNL1        0.0191
      6 C         141.0941  142.5009  164.0246 C.3     1  UNL1        0.0722
      7 C         140.0769  141.4453  166.1696 C.3     1  UNL1        0.1046
      8 C         139.1842  140.2659  165.9207 C.3     1  UNL1        0.1592
      9 O         138.0017  140.3998  165.0076 O.3     1  UNL1       -0.3571
     10 C         138.7687  138.6867  164.0192 C.3     1  UNL1        0.0296
     11 C         138.1040  139.9569  163.5781 C.3     1  UNL1        0.0930
     12 C         137.4393  141.2272  163.1369 C.3     1  UNL1        0.0296
     13 C         138.2063  139.5140  162.1486 C.3     1  UNL1        0.0296
     14 C         140.3029  145.9299  162.1900 C.3     1  UNL1        0.0897
     15 N         139.7642  145.7308  160.8043 N.am    1  UNL1       -0.3009
     16 C         140.6697  145.2501  159.7094 C.2     1  UNL1        0.2459
     17 O         142.1140  144.9684  160.0001 O.2     1  UNL1       -0.2701
     18 H         138.8162  145.9157  160.6135 H       1  UNL1        0.1497
     19 C         140.1309  145.0510  158.3237 C.ar    1  UNL1        0.0550
     20 C         140.1491  146.1849  157.3419 C.ar    1  UNL1        0.0160
     21 C         139.6103  145.9858  155.9562 C.ar    1  UNL1        0.0587
     22 CL        139.6284  147.1197  154.9743 Cl      1  UNL1       -0.0822
     23 C         139.0533  144.6529  155.5523 C.ar    1  UNL1        0.0228
     24 C         139.0352  143.5190  156.5342 C.ar    1  UNL1        0.0587
     25 CL        138.4782  142.1860  156.1304 Cl      1  UNL1       -0.0822
     26 C         139.5740  143.7181  157.9199 C.ar    1  UNL1        0.0160
@<TRIPOS>BOND
     1    10    11    1
     2    11    12    1
     3    11    13    1
     4    11     9    1
     5     9     8    1
     6     8     7    1
     7     7     1    1
     8     1     2    1
     9     2     3    1
    10     3     4    1
    11     4    14    1
    12    14    15    1
    13    15    16   am
    14    16    17    2
    15    16    19    1
    16    19    20   ar
    17    20    21   ar
    18    21    22    1
    19    21    23   ar
    20    23    24   ar
    21    24    25    1
    22    24    26   ar
    23     4     5    1
    24     5     6    1
    25     6     1    1
    26    26    19   ar
    27    15    18    1
@<TRIPOS>MOLECULE
*****
 26 27 0 0 0
SMALL
GASTEIGER

@<TRIPOS>ATOM
      1 N         138.1152  140.0497  156.8810 N.3     1  UNL1       -0.2706
      2 C         139.2364  139.0604  156.7620 C.3     1  UNL1        0.0722
      3 C         140.0524  138.7029  157.9688 C.3     1  UNL1        0.0191
      4 C         139.7472  139.3346  159.2946 C.3     1  UNL1        0.0224
      5 C         138.6259  140.3238  159.4136 C.3     1  UNL1        0.0191
      6 C         137.8100  140.6814  158.2068 C.3     1  UNL1        0.0722
      7 C         137.2993  140.4072  155.6742 C.3     1  UNL1        0.1046
      8 C         135.8821  140.8708  155.8375 C.3     1  UNL1        0.1592
      9 O         134.8858  140.0020  156.5464 O.3     1  UNL1       -0.3571
     10 C         133.1352  139.3924  157.5778 C.3     1  UNL1        0.0296
     11 C         133.4171  140.2635  156.3897 C.3     1  UNL1        0.0930
     12 C         133.6989  141.1347  155.2016 C.3     1  UNL1        0.0296
     13 C         131.9484  140.5250  156.2330 C.3     1  UNL1        0.0296
     14 C         140.5631  138.9770  160.5014 C.3     1  UNL1        0.0897
     15 N         140.0852  139.3607  161.8704 N.am    1  UNL1       -0.3009
     16 C         140.1849  138.3807  163.0016 C.2     1  UNL1        0.2459
     17 O         140.7624  137.0170  162.7638 O.2     1  UNL1       -0.2701
     18 H         139.7061  140.2558  162.0265 H       1  UNL1        0.1497
     19 C         139.7069  138.7645  164.3707 C.ar    1  UNL1        0.0550
     20 C         138.7110  137.9012  165.0867 C.ar    1  UNL1        0.0160
     21 C         138.2330  138.2849  166.4558 C.ar    1  UNL1        0.0587
     22 CL        137.2370  137.4217  167.1719 Cl      1  UNL1       -0.0822
     23 C         138.7511  139.5320  167.1088 C.ar    1  UNL1        0.0228
     24 C         139.7471  140.3953  166.3927 C.ar    1  UNL1        0.0587
     25 CL        140.2652  141.6424  167.0457 Cl      1  UNL1       -0.0822
     26 C         140.2250  140.0115  165.0237 C.ar    1  UNL1        0.0160
@<TRIPOS>BOND
     1    10    11    1
     2    11    12    1
     3    11    13    1
     4    11     9    1
     5     9     8    1
     6     8     7    1
     7     7     1    1
     8     1     2    1
     9     2     3    1
    10     3     4    1
    11     4    14    1
    12    14    15    1
    13    15    16   am
    14    16    17    2
    15    16    19    1
    16    19    20   ar
    17    20    21   ar
    18    21    22    1
    19    21    23   ar
    20    23    24   ar
    21    24    25    1
    22    24    26   ar
    23     4     5    1
    24     5     6    1
    25     6     1    1
    26    26    19   ar
    27    15    18    1
@<TRIPOS>MOLECULE
*****
 26 27 0 0 0
SMALL
GASTEIGER

@<TRIPOS>ATOM
      1 N         139.1613  138.8825  160.6719 N.3     1  UNL1       -0.2706
      2 C         140.4750  138.2883  161.0854 C.3     1  UNL1        0.0722
      3 C         141.5805  138.1411  160.0823 C.3     1  UNL1        0.0191
      4 C         141.3723  138.5880  158.6657 C.3     1  UNL1        0.0224
      5 C         140.0586  139.1822  158.2522 C.3     1  UNL1        0.0191
      6 C         138.9531  139.3295  159.2553 C.3     1  UNL1        0.0722
      7 C         138.0558  139.0298  161.6750 C.3     1  UNL1        0.1046
      8 C         138.2871  139.8062  162.9374 C.3     1  UNL1        0.1592
      9 O         139.1367  139.2268  164.0294 O.3     1  UNL1       -0.3571
     10 C         138.3402  140.4416  165.5753 C.3     1  UNL1        0.0296
     11 C         138.5445  138.9680  165.3831 C.3     1  UNL1        0.0930
     12 C         138.7488  137.4945  165.1909 C.3     1  UNL1        0.0296
     13 C         137.9523  138.7094  166.7367 C.3     1  UNL1        0.0296
     14 C         142.4777  138.4407  157.6626 C.3     1  UNL1        0.0897
     15 N         143.0840  137.0927  157.4071 N.am    1  UNL1       -0.3009
     16 C         142.3337  136.0734  156.6021 C.2     1  UNL1        0.2459
     17 O         140.9773  136.4020  156.0526 O.2     1  UNL1       -0.2701
     18 H         143.9743  136.8770  157.7677 H       1  UNL1        0.1497
     19 C         142.9400  134.7253  156.3466 C.ar    1  UNL1        0.0550
     20 C         142.6050  133.9782  155.0898 C.ar    1  UNL1        0.0160
     21 C         143.2112  132.6302  154.8343 C.ar    1  UNL1        0.0587
     22 CL        142.8762  131.8831  153.5775 Cl      1  UNL1       -0.0822
     23 C         144.1526  132.0292  155.8356 C.ar    1  UNL1        0.0228
     24 C         144.4877  132.7764  157.0925 C.ar    1  UNL1        0.0587
     25 CL        145.4291  132.1754  158.0938 Cl      1  UNL1       -0.0822
     26 C         143.8814  134.1244  157.3479 C.ar    1  UNL1        0.0160
@<TRIPOS>BOND
     1    10    11    1
     2    11    12    1
     3    11    13    1
     4    11     9    1
     5     9     8    1
     6     8     7    1
     7     7     1    1
     8     1     2    1
     9     2     3    1
    10     3     4    1
    11     4    14    1
    12    14    15    1
    13    15    16   am
    14    16    17    2
    15    16    19    1
    16    19    20   ar
    17    20    21   ar
    18    21    22    1
    19    21    23   ar
    20    23    24   ar
    21    24    25    1
    22    24    26   ar
    23     4     5    1
    24     5     6    1
    25     6     1    1
    26    26    19   ar
    27    15    18    1
@<TRIPOS>MOLECULE
*****
 26 27 0 0 0
SMALL
GASTEIGER

@<TRIPOS>ATOM
      1 N         139.3599  142.3248  160.7881 N.3     1  UNL1       -0.2706
      2 C         140.1634  141.1140  161.1598 C.3     1  UNL1        0.0722
      3 C         139.8598  140.3727  162.4280 C.3     1  UNL1        0.0191
      4 C         138.7526  140.8422  163.3244 C.3     1  UNL1        0.0224
      5 C         137.9491  142.0530  162.9527 C.3     1  UNL1        0.0191
      6 C         138.2527  142.7943  161.6846 C.3     1  UNL1        0.0722
      7 C         139.6635  143.0661  159.5199 C.3     1  UNL1        0.1046
      8 C         139.9913  144.5291  159.5665 C.3     1  UNL1        0.1592
      9 O         141.1994  145.0034  160.3185 O.3     1  UNL1       -0.3571
     10 C         142.3339  144.1280  161.8827 C.3     1  UNL1        0.0296
     11 C         141.1708  145.0729  161.8167 C.3     1  UNL1        0.0930
     12 C         140.0078  146.0179  161.7507 C.3     1  UNL1        0.0296
     13 C         141.1422  145.1424  163.3147 C.3     1  UNL1        0.0296
     14 C         138.4490  140.1008  164.5926 C.3     1  UNL1        0.0897
     15 N         138.9262  140.6393  165.9088 N.am    1  UNL1       -0.3009
     16 C         140.3332  140.3801  166.3594 C.2     1  UNL1        0.2459
     17 O         141.2630  139.5825  165.4939 O.2     1  UNL1       -0.2701
     18 H         138.3159  141.1629  166.4768 H       1  UNL1        0.1497
     19 C         140.8104  140.9187  167.6756 C.ar    1  UNL1        0.0550
     20 C         140.3881  142.2864  168.1239 C.ar    1  UNL1        0.0160
     21 C         140.8653  142.8249  169.4401 C.ar    1  UNL1        0.0587
     22 CL        140.4429  144.1926  169.8884 Cl      1  UNL1       -0.0822
     23 C         141.7648  141.9957  170.3080 C.ar    1  UNL1        0.0228
     24 C         142.1871  140.6279  169.8597 C.ar    1  UNL1        0.0587
     25 CL        143.0866  139.7987  170.7276 Cl      1  UNL1       -0.0822
     26 C         141.7099  140.0894  168.5435 C.ar    1  UNL1        0.0160
@<TRIPOS>BOND
     1    10    11    1
     2    11    12    1
     3    11    13    1
     4    11     9    1
     5     9     8    1
     6     8     7    1
     7     7     1    1
     8     1     2    1
     9     2     3    1
    10     3     4    1
    11     4    14    1
    12    14    15    1
    13    15    16   am
    14    16    17    2
    15    16    19    1
    16    19    20   ar
    17    20    21   ar
    18    21    22    1
    19    21    23   ar
    20    23    24   ar
    21    24    25    1
    22    24    26   ar
    23     4     5    1
    24     5     6    1
    25     6     1    1
    26    26    19   ar
    27    15    18    1
@<TRIPOS>MOLECULE
*****
 26 27 0 0 0
SMALL
GASTEIGER

@<TRIPOS>ATOM
      1 N         138.9225  140.4924  161.4521 N.3     1  UNL1       -0.2706
      2 C         140.3623  140.4242  161.8671 C.3     1  UNL1        0.0722
      3 C         140.7332  139.8304  163.1937 C.3     1  UNL1        0.0191
      4 C         139.6643  139.3048  164.1053 C.3     1  UNL1        0.0224
      5 C         138.2245  139.3731  163.6904 C.3     1  UNL1        0.0191
      6 C         137.8536  139.9669  162.3638 C.3     1  UNL1        0.0722
      7 C         138.5517  141.0862  160.1255 C.3     1  UNL1        0.1046
      8 C         138.7176  142.5583  159.8900 C.3     1  UNL1        0.1592
      9 O         138.2350  143.5410  160.9154 O.3     1  UNL1       -0.3571
     10 C         140.2389  144.2130  161.0963 C.3     1  UNL1        0.0296
     11 C         139.1245  143.9291  162.0592 C.3     1  UNL1        0.0930
     12 C         138.0100  143.6451  163.0222 C.3     1  UNL1        0.0296
     13 C         140.0139  144.3171  163.2030 C.3     1  UNL1        0.0296
     14 C         140.0351  138.7110  165.4319 C.3     1  UNL1        0.0897
     15 N         140.2327  139.6010  166.6231 N.am    1  UNL1       -0.3009
     16 C         141.5784  140.2068  166.8917 C.2     1  UNL1        0.2459
     17 O         142.7265  139.9226  165.9692 O.2     1  UNL1       -0.2701
     18 H         139.4792  139.7875  167.2286 H       1  UNL1        0.1497
     19 C         141.7760  141.0968  168.0829 C.ar    1  UNL1        0.0550
     20 C         140.5898  141.5762  168.8659 C.ar    1  UNL1        0.0160
     21 C         140.7874  142.4662  170.0571 C.ar    1  UNL1        0.0587
     22 CL        139.6012  142.9456  170.8401 Cl      1  UNL1       -0.0822
     23 C         142.1711  142.8768  170.4653 C.ar    1  UNL1        0.0228
     24 C         143.3574  142.3973  169.6822 C.ar    1  UNL1        0.0587
     25 CL        144.7411  142.8079  170.0904 Cl      1  UNL1       -0.0822
     26 C         143.1598  141.5074  168.4911 C.ar    1  UNL1        0.0160
@<TRIPOS>BOND
     1    10    11    1
     2    11    12    1
     3    11    13    1
     4    11     9    1
     5     9     8    1
     6     8     7    1
     7     7     1    1
     8     1     2    1
     9     2     3    1
    10     3     4    1
    11     4    14    1
    12    14    15    1
    13    15    16   am
    14    16    17    2
    15    16    19    1
    16    19    20   ar
    17    20    21   ar
    18    21    22    1
    19    21    23   ar
    20    23    24   ar
    21    24    25    1
    22    24    26   ar
    23     4     5    1
    24     5     6    1
    25     6     1    1
    26    26    19   ar
    27    15    18    1
@<TRIPOS>MOLECULE
*****
 26 27 0 0 0
SMALL
GASTEIGER

@<TRIPOS>ATOM
      1 N         142.2788  143.1484  160.7456 N.3     1  UNL1       -0.2706
      2 C         141.9684  141.6820  160.8037 C.3     1  UNL1        0.0722
      3 C         142.4453  140.8598  161.9641 C.3     1  UNL1        0.0191
      4 C         143.2325  141.5039  163.0665 C.3     1  UNL1        0.0224
      5 C         143.5429  142.9703  163.0084 C.3     1  UNL1        0.0191
      6 C         143.0661  143.7925  161.8480 C.3     1  UNL1        0.0722
      7 C         141.8020  143.9706  159.5852 C.3     1  UNL1        0.1046
      8 C         140.7162  144.9867  159.7819 C.3     1  UNL1        0.1592
      9 O         139.4726  144.6192  160.5358 O.3     1  UNL1       -0.3571
     10 C         139.8994  146.2056  161.8779 C.3     1  UNL1        0.0296
     11 C         139.4197  144.7920  162.0249 C.3     1  UNL1        0.0930
     12 C         138.9400  143.3784  162.1720 C.3     1  UNL1        0.0296
     13 C         139.3667  144.9648  163.5140 C.3     1  UNL1        0.0296
     14 C         143.7094  140.6817  164.2269 C.3     1  UNL1        0.0897
     15 N         143.2920  141.0405  165.6222 N.am    1  UNL1       -0.3009
     16 C         141.9208  140.6790  166.1112 C.2     1  UNL1        0.2459
     17 O         140.9671  139.9585  165.2050 O.2     1  UNL1       -0.2701
     18 H         143.9179  141.5134  166.2170 H       1  UNL1        0.1497
     19 C         141.5034  141.0379  167.5066 C.ar    1  UNL1        0.0550
     20 C         142.3531  141.9598  168.3299 C.ar    1  UNL1        0.0160
     21 C         141.9357  142.3187  169.7253 C.ar    1  UNL1        0.0587
     22 CL        142.7854  143.2407  170.5486 Cl      1  UNL1       -0.0822
     23 C         140.6686  141.7556  170.2973 C.ar    1  UNL1        0.0228
     24 C         139.8188  140.8336  169.4739 C.ar    1  UNL1        0.0587
     25 CL        138.5517  140.2704  170.0460 Cl      1  UNL1       -0.0822
     26 C         140.2362  140.4747  168.0786 C.ar    1  UNL1        0.0160
@<TRIPOS>BOND
     1    10    11    1
     2    11    12    1
     3    11    13    1
     4    11     9    1
     5     9     8    1
     6     8     7    1
     7     7     1    1
     8     1     2    1
     9     2     3    1
    10     3     4    1
    11     4    14    1
    12    14    15    1
    13    15    16   am
    14    16    17    2
    15    16    19    1
    16    19    20   ar
    17    20    21   ar
    18    21    22    1
    19    21    23   ar
    20    23    24   ar
    21    24    25    1
    22    24    26   ar
    23     4     5    1
    24     5     6    1
    25     6     1    1
    26    26    19   ar
    27    15    18    1
@<TRIPOS>MOLECULE
*****
 26 27 0 0 0
SMALL
GASTEIGER

@<TRIPOS>ATOM
      1 N         144.2772  141.7698  160.4371 N.3     1  UNL1       -0.2706
      2 C         143.6692  140.4103  160.6161 C.3     1  UNL1        0.0722
      3 C         143.8245  139.6850  161.9199 C.3     1  UNL1        0.0191
      4 C         144.5879  140.3192  163.0446 C.3     1  UNL1        0.0224
      5 C         145.1959  141.6786  162.8656 C.3     1  UNL1        0.0191
      6 C         145.0405  142.4039  161.5619 C.3     1  UNL1        0.0722
      7 C         144.1218  142.4951  159.1334 C.3     1  UNL1        0.1046
      8 C         142.8712  143.2744  158.8530 C.3     1  UNL1        0.1592
      9 O         142.5295  144.4709  159.6906 O.3     1  UNL1       -0.3571
     10 C         140.4702  144.5825  159.1939 C.3     1  UNL1        0.0296
     11 C         141.2497  144.4982  160.4726 C.3     1  UNL1        0.0930
     12 C         142.0292  144.4138  161.7513 C.3     1  UNL1        0.0296
     13 C         139.9700  144.5254  161.2546 C.3     1  UNL1        0.0296
     14 C         144.7432  139.5938  164.3484 C.3     1  UNL1        0.0897
     15 N         143.5490  139.3666  165.2271 N.am    1  UNL1       -0.3009
     16 C         142.9252  140.5186  165.9576 C.2     1  UNL1        0.2459
     17 O         143.4955  141.8980  165.8093 O.2     1  UNL1       -0.2701
     18 H         143.1747  138.4612  165.3245 H       1  UNL1        0.1497
     19 C         141.7309  140.2913  166.8363 C.ar    1  UNL1        0.0550
     20 C         140.4255  139.8657  166.2324 C.ar    1  UNL1        0.0160
     21 C         139.2312  139.6384  167.1112 C.ar    1  UNL1        0.0587
     22 CL        137.9258  139.2129  166.5073 Cl      1  UNL1       -0.0822
     23 C         139.3425  139.8366  168.5939 C.ar    1  UNL1        0.0228
     24 C         140.6480  140.2622  169.1978 C.ar    1  UNL1        0.0587
     25 CL        140.7593  140.4604  170.6804 Cl      1  UNL1       -0.0822
     26 C         141.8422  140.4895  168.3190 C.ar    1  UNL1        0.0160
@<TRIPOS>BOND
     1    10    11    1
     2    11    12    1
     3    11    13    1
     4    11     9    1
     5     9     8    1
     6     8     7    1
     7     7     1    1
     8     1     2    1
     9     2     3    1
    10     3     4    1
    11     4    14    1
    12    14    15    1
    13    15    16   am
    14    16    17    2
    15    16    19    1
    16    19    20   ar
    17    20    21   ar
    18    21    22    1
    19    21    23   ar
    20    23    24   ar
    21    24    25    1
    22    24    26   ar
    23     4     5    1
    24     5     6    1
    25     6     1    1
    26    26    19   ar
    27    15    18    1
