@<TRIPOS>MOLECULE
*****
 31 33 0 0 0
SMALL
GASTEIGER

@<TRIPOS>ATOM
      1 C         139.0709  139.7344  167.3455 C.3     1  UNL1        0.0180
      2 C         138.8443  139.3004  165.9277 C.3     1  UNL1        0.0722
      3 N         139.5386  142.1928  162.5510 N.pl3   1  UNL1       -0.3023
      4 C         138.2719  142.2643  163.3513 C.3     1  UNL1        0.1082
      5 C         138.0405  141.3002  164.4768 C.3     1  UNL1        0.0938
      6 N         139.0758  140.2645  164.8021 N.3     1  UNL1       -0.2698
      7 C         140.3424  140.1931  164.0019 C.3     1  UNL1        0.0938
      8 C         140.5738  141.1573  162.8763 C.3     1  UNL1        0.1082
      9 C         140.2695  144.5415  161.7146 C.ar    1  UNL1        0.1519
     10 C         140.5008  145.5056  160.5890 C.ar    1  UNL1        0.0382
     11 C         140.2328  145.0852  159.1743 C.ar    1  UNL1        0.0032
     12 C         139.7333  143.7007  158.8852 C.ar    1  UNL1        0.0015
     13 C         139.5020  142.7366  160.0107 C.ar    1  UNL1        0.0176
     14 C         139.7700  143.1570  161.4254 C.ar    1  UNL1        0.0824
     15 C         141.9386  145.2698  163.5675 C.3     1  UNL1        0.2525
     16 O         140.5375  144.9619  163.1293 O.3     1  UNL1       -0.4702
     17 C         140.0519  140.8282  167.6474 C.3     1  UNL1        0.0107
     18 C         141.2142  140.5631  168.5578 C.3     1  UNL1        0.0508
     19 C         142.1190  140.4424  167.3675 C.ar    1  UNL1       -0.0179
     20 C         142.5621  141.6737  166.6343 C.ar    1  UNL1       -0.0034
     21 C         143.4669  141.5530  165.4441 C.ar    1  UNL1        0.0064
     22 C         143.9286  140.2010  164.9870 C.ar    1  UNL1        0.0345
     23 BR        144.8334  140.0803  163.7967 Br      1  UNL1       -0.0490
     24 C         143.4856  138.9698  165.7202 C.ar    1  UNL1        0.0064
     25 C         142.5808  139.0905  166.9105 C.ar    1  UNL1       -0.0034
     26 C         140.3094  140.6839  169.7481 C.2     1  UNL1        0.0534
     27 O         139.7609  142.0237  170.1404 O.co2   1  UNL1       -0.5489
     28 O         139.9530  139.4647  170.5460 O.co2   1  UNL1       -0.5489
     29 C         142.3764  140.2981  169.4682 C.3     1  UNL1        0.0086
     30 C         142.6650  138.8999  169.9285 C.3     1  UNL1        0.0007
     31 C         143.2502  141.4312  169.9184 C.3     1  UNL1        0.0007
@<TRIPOS>UNITY_ATOM_ATTR
27 1
charge -1
@<TRIPOS>BOND
     1    15    16    1
     2    16     9    1
     3     9    10   ar
     4    10    11   ar
     5    11    12   ar
     6    12    13   ar
     7    13    14   ar
     8    14     3    1
     9     3     4    1
    10     4     5    1
    11     5     6    1
    12     6     2    1
    13     2     1    1
    14     1    17    1
    15    17    18    1
    16    18    26    1
    17    26    27   ar
    18    26    28   ar
    19    18    19    1
    20    19    20   ar
    21    20    21   ar
    22    21    22   ar
    23    22    23    1
    24    22    24   ar
    25    24    25   ar
    26    18    29    1
    27    29    30    1
    28    29    31    1
    29     6     7    1
    30     7     8    1
    31    14     9   ar
    32     8     3    1
    33    25    19   ar
@<TRIPOS>MOLECULE
*****
 31 33 0 0 0
SMALL
GASTEIGER

@<TRIPOS>ATOM
      1 C         138.6513  139.7241  167.7051 C.3     1  UNL1        0.0180
      2 C         138.1513  138.7359  166.6935 C.3     1  UNL1        0.0722
      3 N         139.7552  138.8122  162.4898 N.pl3   1  UNL1       -0.3023
      4 C         138.9733  139.9793  163.0155 C.3     1  UNL1        0.1082
      5 C         138.4386  139.9539  164.4167 C.3     1  UNL1        0.0938
      6 N         138.6859  138.7613  165.2923 N.3     1  UNL1       -0.2698
      7 C         139.4679  137.5941  164.7666 C.3     1  UNL1        0.0938
      8 C         140.0025  137.6196  163.3653 C.3     1  UNL1        0.1082
      9 C         141.7200  139.2143  160.8381 C.ar    1  UNL1        0.1519
     10 C         142.2546  139.2397  159.4369 C.ar    1  UNL1        0.0382
     11 C         141.3590  138.8886  158.2859 C.ar    1  UNL1        0.0032
     12 C         139.9288  138.5120  158.5363 C.ar    1  UNL1        0.0015
     13 C         139.3942  138.4865  159.9375 C.ar    1  UNL1        0.0176
     14 C         140.2899  138.8377  161.0884 C.ar    1  UNL1        0.0824
     15 C         143.5522  138.5375  162.5513 C.3     1  UNL1        0.2525
     16 O         142.6156  139.5654  161.9890 O.3     1  UNL1       -0.4702
     17 C         140.1079  140.0796  167.7500 C.3     1  UNL1        0.0107
     18 C         140.5750  141.2228  168.6014 C.3     1  UNL1        0.0508
     19 C         141.1556  141.8885  167.3890 C.ar    1  UNL1       -0.0179
     20 C         142.6312  141.8182  167.1292 C.ar    1  UNL1       -0.0034
     21 C         143.2118  142.4839  165.9168 C.ar    1  UNL1        0.0064
     22 C         142.3168  143.2197  164.9643 C.ar    1  UNL1        0.0345
     23 BR        142.8974  143.8854  163.7519 Br      1  UNL1       -0.0490
     24 C         140.8412  143.2900  165.2241 C.ar    1  UNL1        0.0064
     25 C         140.2606  142.6243  166.4365 C.ar    1  UNL1       -0.0034
     26 C         139.9944  140.5572  169.8137 C.2     1  UNL1        0.0534
     27 O         138.7864  141.1415  170.4840 O.co2   1  UNL1       -0.5489
     28 O         140.6217  139.3072  170.3558 O.co2   1  UNL1       -0.5489
     29 C         141.0421  142.3660  169.4528 C.3     1  UNL1        0.0086
     30 C         142.2274  142.1934  170.3556 C.3     1  UNL1        0.0007
     31 C         140.3239  143.6819  169.4013 C.3     1  UNL1        0.0007
@<TRIPOS>UNITY_ATOM_ATTR
27 1
charge -1
@<TRIPOS>BOND
     1    15    16    1
     2    16     9    1
     3     9    10   ar
     4    10    11   ar
     5    11    12   ar
     6    12    13   ar
     7    13    14   ar
     8    14     3    1
     9     3     4    1
    10     4     5    1
    11     5     6    1
    12     6     2    1
    13     2     1    1
    14     1    17    1
    15    17    18    1
    16    18    26    1
    17    26    27   ar
    18    26    28   ar
    19    18    19    1
    20    19    20   ar
    21    20    21   ar
    22    21    22   ar
    23    22    23    1
    24    22    24   ar
    25    24    25   ar
    26    18    29    1
    27    29    30    1
    28    29    31    1
    29     6     7    1
    30     7     8    1
    31    14     9   ar
    32     8     3    1
    33    25    19   ar
@<TRIPOS>MOLECULE
*****
 31 33 0 0 0
SMALL
GASTEIGER

@<TRIPOS>ATOM
      1 C         138.9497  139.7041  167.4679 C.3     1  UNL1        0.0180
      2 C         138.4828  139.2632  166.1123 C.3     1  UNL1        0.0722
      3 N         139.2825  141.8383  162.5096 N.pl3   1  UNL1       -0.3023
      4 C         138.0945  142.1171  163.3819 C.3     1  UNL1        0.1082
      5 C         137.8279  141.2587  164.5828 C.3     1  UNL1        0.0938
      6 N         138.7494  140.1216  164.9114 N.3     1  UNL1       -0.2698
      7 C         139.9374  139.8428  164.0391 C.3     1  UNL1        0.0938
      8 C         140.2039  140.7012  162.8382 C.3     1  UNL1        0.1082
      9 C         138.9775  142.3183  159.9745 C.ar    1  UNL1        0.1519
     10 C         139.2441  143.1767  158.7737 C.ar    1  UNL1        0.0382
     11 C         140.0823  144.4135  158.9070 C.ar    1  UNL1        0.0032
     12 C         140.6539  144.7919  160.2412 C.ar    1  UNL1        0.0015
     13 C         140.3873  143.9335  161.4420 C.ar    1  UNL1        0.0176
     14 C         139.5491  142.6967  161.3087 C.ar    1  UNL1        0.0824
     15 C         138.7674  139.7942  159.3960 C.3     1  UNL1        0.2525
     16 O         138.1393  141.0815  159.8412 O.3     1  UNL1       -0.4702
     17 C         140.3865  140.0785  167.6811 C.3     1  UNL1        0.0107
     18 C         140.7352  141.2486  168.5524 C.3     1  UNL1        0.0508
     19 C         141.3697  141.9337  167.3784 C.ar    1  UNL1       -0.0179
     20 C         142.8537  141.8535  167.1754 C.ar    1  UNL1       -0.0034
     21 C         143.4882  142.5385  166.0014 C.ar    1  UNL1        0.0064
     22 C         142.6386  143.3037  165.0305 C.ar    1  UNL1        0.0345
     23 BR        143.2731  143.9887  163.8565 Br      1  UNL1       -0.0490
     24 C         141.1546  143.3839  165.2336 C.ar    1  UNL1        0.0064
     25 C         140.5202  142.6989  166.4075 C.ar    1  UNL1       -0.0034
     26 C         140.1008  140.5636  169.7264 C.2     1  UNL1        0.0534
     27 O         138.8375  141.1112  170.3215 O.co2   1  UNL1       -0.5489
     28 O         140.7296  139.3310  170.3052 O.co2   1  UNL1       -0.5489
     29 C         141.0840  142.4188  169.4237 C.3     1  UNL1        0.0086
     30 C         140.3091  143.6978  169.3074 C.3     1  UNL1        0.0007
     31 C         142.2078  142.3099  170.4113 C.3     1  UNL1        0.0007
@<TRIPOS>UNITY_ATOM_ATTR
27 1
charge -1
@<TRIPOS>BOND
     1    15    16    1
     2    16     9    1
     3     9    10   ar
     4    10    11   ar
     5    11    12   ar
     6    12    13   ar
     7    13    14   ar
     8    14     3    1
     9     3     4    1
    10     4     5    1
    11     5     6    1
    12     6     2    1
    13     2     1    1
    14     1    17    1
    15    17    18    1
    16    18    26    1
    17    26    27   ar
    18    26    28   ar
    19    18    19    1
    20    19    20   ar
    21    20    21   ar
    22    21    22   ar
    23    22    23    1
    24    22    24   ar
    25    24    25   ar
    26    18    29    1
    27    29    30    1
    28    29    31    1
    29     6     7    1
    30     7     8    1
    31    14     9   ar
    32     8     3    1
    33    25    19   ar
@<TRIPOS>MOLECULE
*****
 31 33 0 0 0
SMALL
GASTEIGER

@<TRIPOS>ATOM
      1 C         139.0179  139.8579  167.1883 C.3     1  UNL1        0.0180
      2 C         138.7703  139.1852  165.8707 C.3     1  UNL1        0.0722
      3 N         139.3741  141.4591  162.0347 N.pl3   1  UNL1       -0.3023
      4 C         140.5088  140.6805  162.6317 C.3     1  UNL1        0.1082
      5 C         140.3076  139.9225  163.9103 C.3     1  UNL1        0.0938
      6 N         138.9715  139.9431  164.5921 N.3     1  UNL1       -0.2698
      7 C         137.8369  140.7217  163.9952 C.3     1  UNL1        0.0938
      8 C         138.0382  141.4797  162.7164 C.3     1  UNL1        0.1082
      9 C         139.8936  143.6824  160.7949 C.ar    1  UNL1        0.1519
     10 C         140.0949  144.4403  159.5163 C.ar    1  UNL1        0.0382
     11 C         139.9781  143.7328  158.1987 C.ar    1  UNL1        0.0032
     12 C         139.6599  142.2675  158.1598 C.ar    1  UNL1        0.0015
     13 C         139.4586  141.5096  159.4385 C.ar    1  UNL1        0.0176
     14 C         139.5755  142.2170  160.7560 C.ar    1  UNL1        0.0824
     15 C         139.9364  145.8869  162.1690 C.3     1  UNL1        0.2525
     16 O         140.0104  144.3898  162.1124 O.3     1  UNL1       -0.4702
     17 C         140.4222  140.0588  167.6756 C.3     1  UNL1        0.0107
     18 C         140.7569  141.2450  168.5306 C.3     1  UNL1        0.0508
     19 C         141.3678  141.9284  167.3432 C.ar    1  UNL1       -0.0179
     20 C         142.8442  141.8285  167.0978 C.ar    1  UNL1       -0.0034
     21 C         143.4550  142.5120  165.9105 C.ar    1  UNL1        0.0064
     22 C         142.5895  143.2953  164.9686 C.ar    1  UNL1        0.0345
     23 BR        143.2004  143.9787  163.7812 Br      1  UNL1       -0.0490
     24 C         141.1131  143.3952  165.2140 C.ar    1  UNL1        0.0064
     25 C         140.5023  142.7118  166.4013 C.ar    1  UNL1       -0.0034
     26 C         140.1461  140.5616  169.7179 C.2     1  UNL1        0.0534
     27 O         138.8902  141.1051  170.3321 O.co2   1  UNL1       -0.5489
     28 O         140.7911  139.3347  170.2911 O.co2   1  UNL1       -0.5489
     29 C         141.0917  142.4312  169.3855 C.3     1  UNL1        0.0086
     30 C         140.3019  143.6993  169.2513 C.3     1  UNL1        0.0007
     31 C         142.2163  142.3492  170.3748 C.3     1  UNL1        0.0007
@<TRIPOS>UNITY_ATOM_ATTR
27 1
charge -1
@<TRIPOS>BOND
     1    15    16    1
     2    16     9    1
     3     9    10   ar
     4    10    11   ar
     5    11    12   ar
     6    12    13   ar
     7    13    14   ar
     8    14     3    1
     9     3     4    1
    10     4     5    1
    11     5     6    1
    12     6     2    1
    13     2     1    1
    14     1    17    1
    15    17    18    1
    16    18    26    1
    17    26    27   ar
    18    26    28   ar
    19    18    19    1
    20    19    20   ar
    21    20    21   ar
    22    21    22   ar
    23    22    23    1
    24    22    24   ar
    25    24    25   ar
    26    18    29    1
    27    29    30    1
    28    29    31    1
    29     6     7    1
    30     7     8    1
    31    14     9   ar
    32     8     3    1
    33    25    19   ar
@<TRIPOS>MOLECULE
*****
 31 33 0 0 0
SMALL
GASTEIGER

@<TRIPOS>ATOM
      1 C         139.0713  139.6347  167.4817 C.3     1  UNL1        0.0180
      2 C         138.6184  139.2888  166.0941 C.3     1  UNL1        0.0722
      3 N         139.6079  142.0206  162.6578 N.pl3   1  UNL1       -0.3023
      4 C         140.4952  140.8510  162.9657 C.3     1  UNL1        0.1082
      5 C         140.1654  139.9404  164.1111 C.3     1  UNL1        0.0938
      6 N         138.9482  140.1994  164.9487 N.3     1  UNL1       -0.2698
      7 C         138.0609  141.3689  164.6408 C.3     1  UNL1        0.0938
      8 C         138.3908  142.2795  163.4953 C.3     1  UNL1        0.1082
      9 C         139.2902  142.7201  160.1759 C.ar    1  UNL1        0.1519
     10 C         139.6201  143.6306  159.0305 C.ar    1  UNL1        0.0382
     11 C         140.5975  144.7523  159.2215 C.ar    1  UNL1        0.0032
     12 C         141.2451  144.9634  160.5579 C.ar    1  UNL1        0.0015
     13 C         140.9152  144.0528  161.7033 C.ar    1  UNL1        0.0176
     14 C         139.9377  142.9312  161.5123 C.ar    1  UNL1        0.0824
     15 C         138.7959  140.2504  159.5382 C.3     1  UNL1        0.2525
     16 O         138.3128  141.5984  159.9849 O.3     1  UNL1       -0.4702
     17 C         140.0303  140.7678  167.6970 C.3     1  UNL1        0.0107
     18 C         141.2202  140.5835  168.5915 C.3     1  UNL1        0.0508
     19 C         142.1025  140.4359  167.3874 C.ar    1  UNL1       -0.0179
     20 C         142.6298  139.0848  167.0051 C.ar    1  UNL1       -0.0034
     21 C         143.5121  138.9371  165.8010 C.ar    1  UNL1        0.0064
     22 C         143.8670  140.1407  164.9792 C.ar    1  UNL1        0.0345
     23 BR        144.7492  139.9931  163.7750 Br      1  UNL1       -0.0490
     24 C         143.3396  141.4918  165.3614 C.ar    1  UNL1        0.0064
     25 C         142.4573  141.6395  166.5655 C.ar    1  UNL1       -0.0034
     26 C         140.3380  140.7312  169.7956 C.2     1  UNL1        0.0534
     27 O         139.9034  139.5162  170.5604 O.co2   1  UNL1       -0.5489
     28 O         139.8903  142.0937  170.2348 O.co2   1  UNL1       -0.5489
     29 C         142.4102  140.3993  169.4859 C.3     1  UNL1        0.0086
     30 C         142.7124  139.0483  170.0633 C.3     1  UNL1        0.0007
     31 C         143.2979  141.5662  169.8030 C.3     1  UNL1        0.0007
@<TRIPOS>UNITY_ATOM_ATTR
27 1
charge -1
@<TRIPOS>BOND
     1    15    16    1
     2    16     9    1
     3     9    10   ar
     4    10    11   ar
     5    11    12   ar
     6    12    13   ar
     7    13    14   ar
     8    14     3    1
     9     3     4    1
    10     4     5    1
    11     5     6    1
    12     6     2    1
    13     2     1    1
    14     1    17    1
    15    17    18    1
    16    18    26    1
    17    26    27   ar
    18    26    28   ar
    19    18    19    1
    20    19    20   ar
    21    20    21   ar
    22    21    22   ar
    23    22    23    1
    24    22    24   ar
    25    24    25   ar
    26    18    29    1
    27    29    30    1
    28    29    31    1
    29     6     7    1
    30     7     8    1
    31    14     9   ar
    32     8     3    1
    33    25    19   ar
@<TRIPOS>MOLECULE
*****
 31 33 0 0 0
SMALL
GASTEIGER

@<TRIPOS>ATOM
      1 C         142.7971  139.1584  167.4927 C.3     1  UNL1        0.0180
      2 C         143.5297  138.5345  166.3420 C.3     1  UNL1        0.0722
      3 N         143.4426  140.4933  162.2916 N.pl3   1  UNL1       -0.3023
      4 C         144.7485  140.3021  163.0043 C.3     1  UNL1        0.1082
      5 C         144.7776  139.6492  164.3544 C.3     1  UNL1        0.0938
      6 N         143.5006  139.1874  164.9919 N.3     1  UNL1       -0.2698
      7 C         142.1947  139.3786  164.2792 C.3     1  UNL1        0.0938
      8 C         142.1657  140.0316  162.9290 C.3     1  UNL1        0.1082
      9 C         143.7263  140.3437  159.7134 C.ar    1  UNL1        0.1519
     10 C         143.6973  140.9967  158.3633 C.ar    1  UNL1        0.0382
     11 C         143.3556  142.4521  158.2413 C.ar    1  UNL1        0.0032
     12 C         143.0429  143.2546  159.4693 C.ar    1  UNL1        0.0015
     13 C         143.0719  142.6017  160.8194 C.ar    1  UNL1        0.0176
     14 C         143.4136  141.1462  160.9414 C.ar    1  UNL1        0.0824
     15 C         142.9743  137.8635  159.8946 C.3     1  UNL1        0.2525
     16 O         144.0680  138.8883  159.8354 O.3     1  UNL1       -0.4702
     17 C         142.5996  140.6446  167.5389 C.3     1  UNL1        0.0107
     18 C         141.5095  141.2303  168.3866 C.3     1  UNL1        0.0508
     19 C         140.5704  141.1731  167.2183 C.ar    1  UNL1       -0.0179
     20 C         139.6572  139.9955  167.0472 C.ar    1  UNL1       -0.0034
     21 C         138.7181  139.9382  165.8790 C.ar    1  UNL1        0.0064
     22 C         138.6921  141.0585  164.8819 C.ar    1  UNL1        0.0345
     23 BR        137.7529  141.0012  163.7137 Br      1  UNL1       -0.0490
     24 C         139.6052  142.2361  165.0531 C.ar    1  UNL1        0.0064
     25 C         140.5444  142.2934  166.2213 C.ar    1  UNL1       -0.0034
     26 C         142.4486  141.2876  169.5548 C.2     1  UNL1        0.0534
     27 O         143.5842  142.2676  169.5568 O.co2   1  UNL1       -0.5489
     28 O         142.2522  140.3649  170.7209 O.co2   1  UNL1       -0.5489
     29 C         140.4194  141.8161  169.2342 C.3     1  UNL1        0.0086
     30 C         139.3984  140.9188  169.8684 C.3     1  UNL1        0.0007
     31 C         140.3503  143.2993  169.4476 C.3     1  UNL1        0.0007
@<TRIPOS>UNITY_ATOM_ATTR
27 1
charge -1
@<TRIPOS>BOND
     1    15    16    1
     2    16     9    1
     3     9    10   ar
     4    10    11   ar
     5    11    12   ar
     6    12    13   ar
     7    13    14   ar
     8    14     3    1
     9     3     4    1
    10     4     5    1
    11     5     6    1
    12     6     2    1
    13     2     1    1
    14     1    17    1
    15    17    18    1
    16    18    26    1
    17    26    27   ar
    18    26    28   ar
    19    18    19    1
    20    19    20   ar
    21    20    21   ar
    22    21    22   ar
    23    22    23    1
    24    22    24   ar
    25    24    25   ar
    26    18    29    1
    27    29    30    1
    28    29    31    1
    29     6     7    1
    30     7     8    1
    31    14     9   ar
    32     8     3    1
    33    25    19   ar
@<TRIPOS>MOLECULE
*****
 31 33 0 0 0
SMALL
GASTEIGER

@<TRIPOS>ATOM
      1 C         142.8559  139.1583  167.6216 C.3     1  UNL1        0.0180
      2 C         143.4405  138.4399  166.4418 C.3     1  UNL1        0.0722
      3 N         143.4332  140.3935  162.3880 N.pl3   1  UNL1       -0.3023
      4 C         142.1554  139.8625  162.9670 C.3     1  UNL1        0.1082
      5 C         142.1578  139.2113  164.3182 C.3     1  UNL1        0.0938
      6 N         143.4381  139.0911  165.0905 N.3     1  UNL1       -0.2698
      7 C         144.7159  139.6221  164.5116 C.3     1  UNL1        0.0938
      8 C         144.7135  140.2733  163.1603 C.3     1  UNL1        0.1082
      9 C         143.2296  142.5265  160.9186 C.ar    1  UNL1        0.1519
     10 C         143.2272  143.1777  159.5674 C.ar    1  UNL1        0.0382
     11 C         143.4258  142.3471  158.3342 C.ar    1  UNL1        0.0032
     12 C         143.6269  140.8654  158.4523 C.ar    1  UNL1        0.0015
     13 C         143.6294  140.2142  159.8035 C.ar    1  UNL1        0.0176
     14 C         143.4307  141.0448  161.0367 C.ar    1  UNL1        0.0824
     15 C         144.1756  144.1431  162.7191 C.3     1  UNL1        0.2525
     16 O         143.0310  143.3571  162.1518 O.3     1  UNL1       -0.4702
     17 C         142.6228  140.6387  167.5582 C.3     1  UNL1        0.0107
     18 C         141.5349  141.2626  168.3811 C.3     1  UNL1        0.0508
     19 C         140.6065  141.1952  167.2047 C.ar    1  UNL1       -0.0179
     20 C         140.6304  142.2784  166.1675 C.ar    1  UNL1       -0.0034
     21 C         139.7021  142.2110  164.9912 C.ar    1  UNL1        0.0064
     22 C         138.7499  141.0604  164.8521 C.ar    1  UNL1        0.0345
     23 BR        137.8216  140.9930  163.6758 Br      1  UNL1       -0.0490
     24 C         138.7261  139.9771  165.8894 C.ar    1  UNL1        0.0064
     25 C         139.6544  140.0445  167.0657 C.ar    1  UNL1       -0.0034
     26 C         142.4632  141.3300  169.5574 C.2     1  UNL1        0.0534
     27 O         143.6114  142.2950  169.5523 O.co2   1  UNL1       -0.5489
     28 O         142.2432  140.4323  170.7388 O.co2   1  UNL1       -0.5489
     29 C         140.4469  141.8864  169.2039 C.3     1  UNL1        0.0086
     30 C         139.4053  141.0216  169.8497 C.3     1  UNL1        0.0007
     31 C         140.4005  143.3753  169.3810 C.3     1  UNL1        0.0007
@<TRIPOS>UNITY_ATOM_ATTR
27 1
charge -1
@<TRIPOS>BOND
     1    15    16    1
     2    16     9    1
     3     9    10   ar
     4    10    11   ar
     5    11    12   ar
     6    12    13   ar
     7    13    14   ar
     8    14     3    1
     9     3     4    1
    10     4     5    1
    11     5     6    1
    12     6     2    1
    13     2     1    1
    14     1    17    1
    15    17    18    1
    16    18    26    1
    17    26    27   ar
    18    26    28   ar
    19    18    19    1
    20    19    20   ar
    21    20    21   ar
    22    21    22   ar
    23    22    23    1
    24    22    24   ar
    25    24    25   ar
    26    18    29    1
    27    29    30    1
    28    29    31    1
    29     6     7    1
    30     7     8    1
    31    14     9   ar
    32     8     3    1
    33    25    19   ar
@<TRIPOS>MOLECULE
*****
 31 33 0 0 0
SMALL
GASTEIGER

@<TRIPOS>ATOM
      1 C         142.9584  138.9139  167.3399 C.3     1  UNL1        0.0180
      2 C         143.3541  138.4150  165.9817 C.3     1  UNL1        0.0722
      3 N         140.7352  139.2635  162.4220 N.pl3   1  UNL1       -0.3023
      4 C         141.6690  140.3195  162.9348 C.3     1  UNL1        0.1082
      5 C         142.5420  140.0367  164.1214 C.3     1  UNL1        0.0938
      6 N         142.4811  138.6979  164.7952 N.3     1  UNL1       -0.2698
      7 C         141.5473  137.6419  164.2824 C.3     1  UNL1        0.0938
      8 C         140.6743  137.9248  163.0958 C.3     1  UNL1        0.1082
      9 C         140.4714  139.6811  159.8713 C.ar    1  UNL1        0.1519
     10 C         139.5984  139.9640  158.6848 C.ar    1  UNL1        0.0382
     11 C         138.1163  140.1121  158.8624 C.ar    1  UNL1        0.0032
     12 C         137.5072  139.9774  160.2264 C.ar    1  UNL1        0.0015
     13 C         138.3802  139.6946  161.4130 C.ar    1  UNL1        0.0176
     14 C         139.8623  139.5464  161.2354 C.ar    1  UNL1        0.0824
     15 C         142.5499  138.1751  159.4694 C.3     1  UNL1        0.2525
     16 O         141.9534  139.5330  159.6937 O.3     1  UNL1       -0.4702
     17 C         142.5978  140.3570  167.5331 C.3     1  UNL1        0.0107
     18 C         141.4981  140.7349  168.4806 C.3     1  UNL1        0.0508
     19 C         140.6548  141.1821  167.3235 C.ar    1  UNL1       -0.0179
     20 C         140.7127  142.6075  166.8599 C.ar    1  UNL1       -0.0034
     21 C         139.8694  143.0546  165.7028 C.ar    1  UNL1        0.0064
     22 C         138.9683  142.0764  165.0093 C.ar    1  UNL1        0.0345
     23 BR        138.1250  142.5236  163.8521 Br      1  UNL1       -0.0490
     24 C         138.9104  140.6511  165.4728 C.ar    1  UNL1        0.0064
     25 C         139.7537  140.2039  166.6299 C.ar    1  UNL1       -0.0034
     26 C         142.3414  140.2878  169.6377 C.2     1  UNL1        0.0534
     27 O         141.9447  139.0786  170.4317 O.co2   1  UNL1       -0.5489
     28 O         143.5813  141.0498  170.0009 O.co2   1  UNL1       -0.5489
     29 C         140.3984  141.1129  169.4281 C.3     1  UNL1        0.0086
     30 C         139.1856  140.2396  169.5561 C.3     1  UNL1        0.0007
     31 C         140.5115  142.3642  170.2476 C.3     1  UNL1        0.0007
@<TRIPOS>UNITY_ATOM_ATTR
27 1
charge -1
@<TRIPOS>BOND
     1    15    16    1
     2    16     9    1
     3     9    10   ar
     4    10    11   ar
     5    11    12   ar
     6    12    13   ar
     7    13    14   ar
     8    14     3    1
     9     3     4    1
    10     4     5    1
    11     5     6    1
    12     6     2    1
    13     2     1    1
    14     1    17    1
    15    17    18    1
    16    18    26    1
    17    26    27   ar
    18    26    28   ar
    19    18    19    1
    20    19    20   ar
    21    20    21   ar
    22    21    22   ar
    23    22    23    1
    24    22    24   ar
    25    24    25   ar
    26    18    29    1
    27    29    30    1
    28    29    31    1
    29     6     7    1
    30     7     8    1
    31    14     9   ar
    32     8     3    1
    33    25    19   ar
@<TRIPOS>MOLECULE
*****
 31 33 0 0 0
SMALL
GASTEIGER

@<TRIPOS>ATOM
      1 C         143.4134  142.5327  166.0898 C.3     1  UNL1        0.0180
      2 C         144.1567  142.2498  164.8180 C.3     1  UNL1        0.0722
      3 N         142.0650  142.6466  160.8535 N.pl3   1  UNL1       -0.3023
      4 C         143.3313  143.4078  161.1129 C.3     1  UNL1        0.1082
      5 C         144.0285  143.2755  162.4344 C.3     1  UNL1        0.0938
      6 N         143.4595  142.3821  163.4966 N.3     1  UNL1       -0.2698
      7 C         142.1932  141.6209  163.2371 C.3     1  UNL1        0.0938
      8 C         141.4960  141.7532  161.9156 C.3     1  UNL1        0.1082
      9 C         140.1213  143.6060  159.4211 C.ar    1  UNL1        0.1519
     10 C         139.4242  143.7383  158.0996 C.ar    1  UNL1        0.0382
     11 C         139.9734  143.0435  156.8890 C.ar    1  UNL1        0.0032
     12 C         141.2199  142.2164  156.9999 C.ar    1  UNL1        0.0015
     13 C         141.9170  142.0841  158.3214 C.ar    1  UNL1        0.0176
     14 C         141.3678  142.7789  159.5320 C.ar    1  UNL1        0.0824
     15 C         140.0818  145.6591  161.0127 C.3     1  UNL1        0.2525
     16 O         139.5721  144.3008  160.6317 O.3     1  UNL1       -0.4702
     17 C         142.7113  141.4209  166.8114 C.3     1  UNL1        0.0107
     18 C         141.6580  141.7364  167.8318 C.3     1  UNL1        0.0508
     19 C         140.6334  141.8425  166.7414 C.ar    1  UNL1       -0.0179
     20 C         140.1981  143.1911  166.2499 C.ar    1  UNL1       -0.0034
     21 C         139.1735  143.2972  165.1595 C.ar    1  UNL1        0.0064
     22 C         138.5842  142.0546  164.5606 C.ar    1  UNL1        0.0345
     23 BR        137.5597  142.1607  163.4702 Br      1  UNL1       -0.0490
     24 C         139.0196  140.7060  165.0521 C.ar    1  UNL1        0.0064
     25 C         140.0442  140.5999  166.1424 C.ar    1  UNL1       -0.0034
     26 C         142.6826  141.6303  168.9221 C.2     1  UNL1        0.0534
     27 O         143.0766  140.2838  169.4527 O.co2   1  UNL1       -0.5489
     28 O         143.3133  142.8708  169.4820 O.co2   1  UNL1       -0.5489
     29 C         140.6048  142.0519  168.8521 C.3     1  UNL1        0.0086
     30 C         139.7517  140.9534  169.4138 C.3     1  UNL1        0.0007
     31 C         140.4047  143.4660  169.3108 C.3     1  UNL1        0.0007
@<TRIPOS>UNITY_ATOM_ATTR
27 1
charge -1
@<TRIPOS>BOND
     1    15    16    1
     2    16     9    1
     3     9    10   ar
     4    10    11   ar
     5    11    12   ar
     6    12    13   ar
     7    13    14   ar
     8    14     3    1
     9     3     4    1
    10     4     5    1
    11     5     6    1
    12     6     2    1
    13     2     1    1
    14     1    17    1
    15    17    18    1
    16    18    26    1
    17    26    27   ar
    18    26    28   ar
    19    18    19    1
    20    19    20   ar
    21    20    21   ar
    22    21    22   ar
    23    22    23    1
    24    22    24   ar
    25    24    25   ar
    26    18    29    1
    27    29    30    1
    28    29    31    1
    29     6     7    1
    30     7     8    1
    31    14     9   ar
    32     8     3    1
    33    25    19   ar
