@<TRIPOS>MOLECULE
*****
 27 29 0 0 0
SMALL
GASTEIGER

@<TRIPOS>ATOM
      1 C         137.4172  138.3397  167.3482 C.3     1  UNL1        0.0521
      2 C         138.6896  139.1277  167.2473 C.ar    1  UNL1        0.0606
      3 C         139.3502  139.3180  165.9141 C.ar    1  UNL1        0.0290
      4 C         140.6226  140.1060  165.8131 C.ar    1  UNL1        0.0475
      5 C         141.2344  140.7036  167.0454 C.ar    1  UNL1        0.0309
      6 C         142.5068  141.4916  166.9445 C.ar    1  UNL1        0.0027
      7 C         143.1185  142.0892  168.1768 C.ar    1  UNL1        0.0003
      8 C         142.4580  141.8989  169.5100 C.ar    1  UNL1        0.0060
      9 C         141.1856  141.1110  169.6109 C.ar    1  UNL1        0.0708
     10 C         140.5738  140.5133  168.3787 C.ar    1  UNL1        0.0864
     11 N         139.3014  139.7253  168.4796 N.ar    1  UNL1       -0.2494
     12 C         140.5251  140.9206  170.9441 C.2     1  UNL1        0.2442
     13 N         139.9358  139.5896  171.3060 N.am    1  UNL1       -0.3253
     14 O         140.4538  142.0614  171.9155 O.2     1  UNL1       -0.2703
     15 H         139.9825  138.8409  170.6684 H       1  UNL1        0.1453
     16 H         139.5022  139.4647  172.1810 H       1  UNL1        0.1453
     17 N         141.2831  140.2963  164.4799 N.pl3   1  UNL1       -0.3290
     18 H         142.1234  139.8258  164.2753 H       1  UNL1        0.1471
     19 C         140.6635  141.2034  163.4586 C.3     1  UNL1        0.1137
     20 C         139.7732  142.3284  163.8964 C.ar    1  UNL1       -0.0105
     21 C         138.2826  142.1689  163.8447 C.ar    1  UNL1       -0.0245
     22 C         137.6823  140.8844  163.3552 C.3     1  UNL1        0.0307
     23 C         137.3923  143.2939  164.2825 C.ar    1  UNL1       -0.0045
     24 C         137.9926  144.5785  164.7720 C.ar    1  UNL1       -0.0007
     25 C         139.4832  144.7379  164.8237 C.ar    1  UNL1       -0.0045
     26 C         140.3735  143.6129  164.3859 C.ar    1  UNL1       -0.0245
     27 C         141.8641  143.7724  164.4376 C.3     1  UNL1        0.0307
@<TRIPOS>BOND
     1     1     2    1
     2     2     3   ar
     3     3     4   ar
     4     4    17    1
     5    17    19    1
     6    19    20    1
     7    20    21   ar
     8    21    22    1
     9    21    23   ar
    10    23    24   ar
    11    24    25   ar
    12    25    26   ar
    13    26    27    1
    14     4     5   ar
    15     5     6   ar
    16     6     7   ar
    17     7     8   ar
    18     8     9   ar
    19     9    12    1
    20    12    13   am
    21    12    14    2
    22     9    10   ar
    23    10    11   ar
    24    11     2   ar
    25    26    20   ar
    26    10     5   ar
    27    17    18    1
    28    13    15    1
    29    13    16    1
@<TRIPOS>MOLECULE
*****
 27 29 0 0 0
SMALL
GASTEIGER

@<TRIPOS>ATOM
      1 C         137.4662  138.3959  167.2710 C.3     1  UNL1        0.0521
      2 C         138.7372  139.1865  167.1734 C.ar    1  UNL1        0.0606
      3 C         139.4077  139.3675  165.8438 C.ar    1  UNL1        0.0290
      4 C         140.6786  140.1581  165.7462 C.ar    1  UNL1        0.0475
      5 C         141.2792  140.7678  166.9781 C.ar    1  UNL1        0.0309
      6 C         142.5501  141.5583  166.8805 C.ar    1  UNL1        0.0027
      7 C         143.1506  142.1680  168.1124 C.ar    1  UNL1        0.0003
      8 C         142.4802  141.9871  169.4420 C.ar    1  UNL1        0.0060
      9 C         141.2092  141.1965  169.5396 C.ar    1  UNL1        0.0708
     10 C         140.6087  140.5868  168.3077 C.ar    1  UNL1        0.0864
     11 N         139.3377  139.7962  168.4053 N.ar    1  UNL1       -0.2494
     12 C         140.5387  141.0155  170.8692 C.2     1  UNL1        0.2442
     13 N         139.9357  139.6906  171.2309 N.am    1  UNL1       -0.3253
     14 O         140.4713  142.1595  171.8370 O.2     1  UNL1       -0.2703
     15 H         139.9800  138.9398  170.5957 H       1  UNL1        0.1453
     16 H         139.4957  139.5719  172.1036 H       1  UNL1        0.1453
     17 N         141.3491  140.3390  164.4166 N.pl3   1  UNL1       -0.3290
     18 H         142.0372  139.6999  164.1213 H       1  UNL1        0.1471
     19 C         140.9711  141.4937  163.5370 C.3     1  UNL1        0.1137
     20 C         141.8690  142.6917  163.4449 C.ar    1  UNL1       -0.0105
     21 C         143.1568  142.6068  162.6803 C.ar    1  UNL1       -0.0245
     22 C         143.5466  141.3239  162.0080 C.3     1  UNL1        0.0307
     23 C         144.0547  143.8049  162.5882 C.ar    1  UNL1       -0.0045
     24 C         143.6647  145.0878  163.2607 C.ar    1  UNL1       -0.0007
     25 C         142.3770  145.1727  164.0252 C.ar    1  UNL1       -0.0045
     26 C         141.4791  143.9746  164.1173 C.ar    1  UNL1       -0.0245
     27 C         140.1913  144.0595  164.8818 C.3     1  UNL1        0.0307
@<TRIPOS>BOND
     1     1     2    1
     2     2     3   ar
     3     3     4   ar
     4     4    17    1
     5    17    19    1
     6    19    20    1
     7    20    21   ar
     8    21    22    1
     9    21    23   ar
    10    23    24   ar
    11    24    25   ar
    12    25    26   ar
    13    26    27    1
    14     4     5   ar
    15     5     6   ar
    16     6     7   ar
    17     7     8   ar
    18     8     9   ar
    19     9    12    1
    20    12    13   am
    21    12    14    2
    22     9    10   ar
    23    10    11   ar
    24    11     2   ar
    25    26    20   ar
    26    10     5   ar
    27    17    18    1
    28    13    15    1
    29    13    16    1
@<TRIPOS>MOLECULE
*****
 27 29 0 0 0
SMALL
GASTEIGER

@<TRIPOS>ATOM
      1 C         144.6060  143.6237  165.0922 C.3     1  UNL1        0.0521
      2 C         143.1262  143.3782  165.0834 C.ar    1  UNL1        0.0606
      3 C         142.5170  142.4328  166.0759 C.ar    1  UNL1        0.0290
      4 C         141.0373  142.1872  166.0671 C.ar    1  UNL1        0.0475
      5 C         140.1667  142.8871  165.0658 C.ar    1  UNL1        0.0309
      6 C         138.6870  142.6415  165.0571 C.ar    1  UNL1        0.0027
      7 C         137.8166  143.3414  164.0558 C.ar    1  UNL1        0.0003
      8 C         138.4259  144.2867  163.0633 C.ar    1  UNL1        0.0060
      9 C         139.9056  144.5323  163.0721 C.ar    1  UNL1        0.0708
     10 C         140.7760  143.8325  164.0733 C.ar    1  UNL1        0.0864
     11 N         142.2558  144.0780  164.0821 N.ar    1  UNL1       -0.2494
     12 C         140.5149  145.4777  162.0796 C.2     1  UNL1        0.2442
     13 N         141.8154  145.1332  161.4163 N.am    1  UNL1       -0.3253
     14 O         139.8237  146.7675  161.7504 O.2     1  UNL1       -0.2703
     15 H         142.2691  144.2866  161.6324 H       1  UNL1        0.1453
     16 H         142.2153  145.7537  160.7649 H       1  UNL1        0.1453
     17 N         140.4280  141.2419  167.0596 N.pl3   1  UNL1       -0.3290
     18 H         139.7881  141.5760  167.7291 H       1  UNL1        0.1471
     19 C         140.7935  139.7874  167.0321 C.3     1  UNL1        0.1137
     20 C         140.6045  138.9902  165.7756 C.ar    1  UNL1       -0.0105
     21 C         139.2222  138.6364  165.3127 C.ar    1  UNL1       -0.0245
     22 C         138.0291  139.0799  166.1061 C.3     1  UNL1        0.0307
     23 C         139.0332  137.8392  164.0562 C.ar    1  UNL1       -0.0045
     24 C         140.2265  137.3957  163.2627 C.ar    1  UNL1       -0.0007
     25 C         141.6087  137.7495  163.7257 C.ar    1  UNL1       -0.0045
     26 C         141.7977  138.5467  164.9821 C.ar    1  UNL1       -0.0245
     27 C         143.1799  138.9005  165.4451 C.3     1  UNL1        0.0307
@<TRIPOS>BOND
     1     1     2    1
     2     2     3   ar
     3     3     4   ar
     4     4    17    1
     5    17    19    1
     6    19    20    1
     7    20    21   ar
     8    21    22    1
     9    21    23   ar
    10    23    24   ar
    11    24    25   ar
    12    25    26   ar
    13    26    27    1
    14     4     5   ar
    15     5     6   ar
    16     6     7   ar
    17     7     8   ar
    18     8     9   ar
    19     9    12    1
    20    12    13   am
    21    12    14    2
    22     9    10   ar
    23    10    11   ar
    24    11     2   ar
    25    26    20   ar
    26    10     5   ar
    27    17    18    1
    28    13    15    1
    29    13    16    1
@<TRIPOS>MOLECULE
*****
 27 29 0 0 0
SMALL
GASTEIGER

@<TRIPOS>ATOM
      1 C         136.9816  137.9815  167.6767 C.3     1  UNL1        0.0521
      2 C         138.0966  138.9417  167.3851 C.ar    1  UNL1        0.0606
      3 C         138.4595  139.2607  165.9651 C.ar    1  UNL1        0.0290
      4 C         139.5744  140.2209  165.6735 C.ar    1  UNL1        0.0475
      5 C         140.3264  140.8621  166.8020 C.ar    1  UNL1        0.0309
      6 C         141.4413  141.8222  166.5104 C.ar    1  UNL1        0.0027
      7 C         142.1933  142.4633  167.6389 C.ar    1  UNL1        0.0003
      8 C         141.8304  142.1443  169.0589 C.ar    1  UNL1        0.0060
      9 C         140.7155  141.1841  169.3505 C.ar    1  UNL1        0.0708
     10 C         139.9635  140.5430  168.2221 C.ar    1  UNL1        0.0864
     11 N         138.8485  139.5828  168.5136 N.ar    1  UNL1       -0.2494
     12 C         140.3526  140.8651  170.7705 C.2     1  UNL1        0.2442
     13 N         139.9610  139.4674  171.1487 N.am    1  UNL1       -0.3253
     14 O         140.3812  141.9438  171.8124 O.2     1  UNL1       -0.2703
     15 H         139.9422  138.7594  170.4649 H       1  UNL1        0.1453
     16 H         139.7228  139.2580  172.0807 H       1  UNL1        0.1453
     17 N         139.9373  140.5399  164.2535 N.pl3   1  UNL1       -0.3290
     18 H         139.5326  141.3171  163.8047 H       1  UNL1        0.1471
     19 C         140.9168  139.6749  163.5172 C.3     1  UNL1        0.1137
     20 C         142.3847  139.9749  163.5897 C.ar    1  UNL1       -0.0105
     21 C         142.9834  141.0137  162.6882 C.ar    1  UNL1       -0.0245
     22 C         142.1141  141.7524  161.7143 C.3     1  UNL1        0.0307
     23 C         144.4513  141.3136  162.7607 C.ar    1  UNL1       -0.0045
     24 C         145.3206  140.5748  163.7347 C.ar    1  UNL1       -0.0007
     25 C         144.7219  139.5361  164.6361 C.ar    1  UNL1       -0.0045
     26 C         143.2540  139.2361  164.5636 C.ar    1  UNL1       -0.0245
     27 C         142.6554  138.1973  165.4651 C.3     1  UNL1        0.0307
@<TRIPOS>BOND
     1     1     2    1
     2     2     3   ar
     3     3     4   ar
     4     4    17    1
     5    17    19    1
     6    19    20    1
     7    20    21   ar
     8    21    22    1
     9    21    23   ar
    10    23    24   ar
    11    24    25   ar
    12    25    26   ar
    13    26    27    1
    14     4     5   ar
    15     5     6   ar
    16     6     7   ar
    17     7     8   ar
    18     8     9   ar
    19     9    12    1
    20    12    13   am
    21    12    14    2
    22     9    10   ar
    23    10    11   ar
    24    11     2   ar
    25    26    20   ar
    26    10     5   ar
    27    17    18    1
    28    13    15    1
    29    13    16    1
@<TRIPOS>MOLECULE
*****
 27 29 0 0 0
SMALL
GASTEIGER

@<TRIPOS>ATOM
      1 C         145.2516  142.0354  162.7517 C.3     1  UNL1        0.0521
      2 C         144.0318  142.3156  163.5785 C.ar    1  UNL1        0.0606
      3 C         143.9452  141.8023  164.9853 C.ar    1  UNL1        0.0290
      4 C         142.7255  142.0824  165.8121 C.ar    1  UNL1        0.0475
      5 C         141.5923  142.8759  165.2322 C.ar    1  UNL1        0.0309
      6 C         140.3725  143.1561  166.0591 C.ar    1  UNL1        0.0027
      7 C         139.2394  143.9496  165.4792 C.ar    1  UNL1        0.0003
      8 C         139.3260  144.4629  164.0724 C.ar    1  UNL1        0.0060
      9 C         140.5457  144.1828  163.2455 C.ar    1  UNL1        0.0708
     10 C         141.6788  143.3893  163.8255 C.ar    1  UNL1        0.0864
     11 N         142.8987  143.1091  162.9986 N.ar    1  UNL1       -0.2494
     12 C         140.6323  144.6961  161.8388 C.2     1  UNL1        0.2442
     13 N         141.9201  145.2713  161.3282 N.am    1  UNL1       -0.3253
     14 O         139.4312  144.6341  160.9425 O.2     1  UNL1       -0.2703
     15 H         142.7085  145.3120  161.9165 H       1  UNL1        0.1453
     16 H         141.9769  145.6083  160.4049 H       1  UNL1        0.1453
     17 N         142.6389  141.5691  167.2189 N.pl3   1  UNL1       -0.3290
     18 H         142.8220  142.1723  167.9751 H       1  UNL1        0.1471
     19 C         142.2733  140.1368  167.4735 C.3     1  UNL1        0.1137
     20 C         141.0267  139.5621  166.8689 C.ar    1  UNL1       -0.0105
     21 C         139.6972  139.8032  167.5204 C.ar    1  UNL1       -0.0245
     22 C         139.6144  140.6191  168.7763 C.3     1  UNL1        0.0307
     23 C         138.4505  139.2285  166.9158 C.ar    1  UNL1       -0.0045
     24 C         138.5334  138.4126  165.6598 C.ar    1  UNL1       -0.0007
     25 C         139.8628  138.1715  165.0084 C.ar    1  UNL1       -0.0045
     26 C         141.1095  138.7462  165.6130 C.ar    1  UNL1       -0.0245
     27 C         142.4390  138.5050  164.9615 C.3     1  UNL1        0.0307
@<TRIPOS>BOND
     1     1     2    1
     2     2     3   ar
     3     3     4   ar
     4     4    17    1
     5    17    19    1
     6    19    20    1
     7    20    21   ar
     8    21    22    1
     9    21    23   ar
    10    23    24   ar
    11    24    25   ar
    12    25    26   ar
    13    26    27    1
    14     4     5   ar
    15     5     6   ar
    16     6     7   ar
    17     7     8   ar
    18     8     9   ar
    19     9    12    1
    20    12    13   am
    21    12    14    2
    22     9    10   ar
    23    10    11   ar
    24    11     2   ar
    25    26    20   ar
    26    10     5   ar
    27    17    18    1
    28    13    15    1
    29    13    16    1
@<TRIPOS>MOLECULE
*****
 27 29 0 0 0
SMALL
GASTEIGER

@<TRIPOS>ATOM
      1 C         145.0143  141.9962  162.3157 C.3     1  UNL1        0.0521
      2 C         143.8645  142.3005  163.2298 C.ar    1  UNL1        0.0606
      3 C         143.8596  141.7674  164.6318 C.ar    1  UNL1        0.0290
      4 C         142.7099  142.0717  165.5459 C.ar    1  UNL1        0.0475
      5 C         141.5650  142.9090  165.0579 C.ar    1  UNL1        0.0309
      6 C         140.4153  143.2133  165.9720 C.ar    1  UNL1        0.0027
      7 C         139.2705  144.0506  165.4839 C.ar    1  UNL1        0.0003
      8 C         139.2753  144.5836  164.0819 C.ar    1  UNL1        0.0060
      9 C         140.4250  144.2794  163.1678 C.ar    1  UNL1        0.0708
     10 C         141.5699  143.4421  163.6558 C.ar    1  UNL1        0.0864
     11 N         142.7197  143.1378  162.7417 N.ar    1  UNL1       -0.2494
     12 C         140.4299  144.8124  161.7657 C.2     1  UNL1        0.2442
     13 N         141.7041  145.3247  161.1625 N.am    1  UNL1       -0.3253
     14 O         139.1605  144.8332  160.9668 O.2     1  UNL1       -0.2703
     15 H         142.5373  145.3110  161.6868 H       1  UNL1        0.1453
     16 H         141.7073  145.6745  160.2423 H       1  UNL1        0.1453
     17 N         142.7051  141.5386  166.9480 N.pl3   1  UNL1       -0.3290
     18 H         142.9328  142.1310  167.7006 H       1  UNL1        0.1471
     19 C         142.3532  140.1031  167.2034 C.3     1  UNL1        0.1137
     20 C         141.1086  139.5179  166.6046 C.ar    1  UNL1       -0.0105
     21 C         141.2002  138.6456  165.3878 C.ar    1  UNL1       -0.0245
     22 C         142.5364  138.3584  164.7697 C.3     1  UNL1        0.0307
     23 C         139.9555  138.0605  164.7890 C.ar    1  UNL1       -0.0045
     24 C         138.6193  138.3477  165.4072 C.ar    1  UNL1       -0.0007
     25 C         138.5277  139.2200  166.6240 C.ar    1  UNL1       -0.0045
     26 C         139.7724  139.8052  167.2227 C.ar    1  UNL1       -0.0245
     27 C         139.6808  140.6775  168.4396 C.3     1  UNL1        0.0307
@<TRIPOS>BOND
     1     1     2    1
     2     2     3   ar
     3     3     4   ar
     4     4    17    1
     5    17    19    1
     6    19    20    1
     7    20    21   ar
     8    21    22    1
     9    21    23   ar
    10    23    24   ar
    11    24    25   ar
    12    25    26   ar
    13    26    27    1
    14     4     5   ar
    15     5     6   ar
    16     6     7   ar
    17     7     8   ar
    18     8     9   ar
    19     9    12    1
    20    12    13   am
    21    12    14    2
    22     9    10   ar
    23    10    11   ar
    24    11     2   ar
    25    26    20   ar
    26    10     5   ar
    27    17    18    1
    28    13    15    1
    29    13    16    1
@<TRIPOS>MOLECULE
*****
 27 29 0 0 0
SMALL
GASTEIGER

@<TRIPOS>ATOM
      1 C         144.4529  144.5542  165.0420 C.3     1  UNL1        0.0521
      2 C         143.9401  143.2540  165.5868 C.ar    1  UNL1        0.0606
      3 C         143.5728  142.1412  164.6504 C.ar    1  UNL1        0.0290
      4 C         143.0601  140.8411  165.1951 C.ar    1  UNL1        0.0475
      5 C         142.9147  140.6537  166.6763 C.ar    1  UNL1        0.0309
      6 C         142.4020  139.3536  167.2210 C.ar    1  UNL1        0.0027
      7 C         142.2566  139.1662  168.7021 C.ar    1  UNL1        0.0003
      8 C         142.6240  140.2790  169.6385 C.ar    1  UNL1        0.0060
      9 C         143.1367  141.5791  169.0938 C.ar    1  UNL1        0.0708
     10 C         143.2821  141.7665  167.6127 C.ar    1  UNL1        0.0864
     11 N         143.7948  143.0666  167.0679 N.ar    1  UNL1       -0.2494
     12 C         143.5041  142.6919  170.0302 C.2     1  UNL1        0.2442
     13 N         144.9446  143.0589  170.2303 N.am    1  UNL1       -0.3253
     14 O         142.4309  143.4376  170.7664 O.2     1  UNL1       -0.2703
     15 H         145.6490  142.5695  169.7471 H       1  UNL1        0.1453
     16 H         145.1857  143.7892  170.8449 H       1  UNL1        0.1453
     17 N         142.6927  139.7284  164.2587 N.pl3   1  UNL1       -0.3290
     18 H         143.3642  139.0529  164.0095 H       1  UNL1        0.1471
     19 C         141.3023  139.6447  163.7021 C.3     1  UNL1        0.1137
     20 C         140.1710  139.1894  164.5754 C.ar    1  UNL1       -0.0105
     21 C         139.2756  140.1992  165.2302 C.ar    1  UNL1       -0.0245
     22 C         139.5117  141.6643  165.0117 C.3     1  UNL1        0.0307
     23 C         138.1442  139.7438  166.1035 C.ar    1  UNL1       -0.0045
     24 C         137.9082  138.2787  166.3220 C.ar    1  UNL1       -0.0007
     25 C         138.8036  137.2689  165.6672 C.ar    1  UNL1       -0.0045
     26 C         139.9349  137.7243  164.7939 C.ar    1  UNL1       -0.0245
     27 C         140.8303  136.7145  164.1391 C.3     1  UNL1        0.0307
@<TRIPOS>BOND
     1     1     2    1
     2     2     3   ar
     3     3     4   ar
     4     4    17    1
     5    17    19    1
     6    19    20    1
     7    20    21   ar
     8    21    22    1
     9    21    23   ar
    10    23    24   ar
    11    24    25   ar
    12    25    26   ar
    13    26    27    1
    14     4     5   ar
    15     5     6   ar
    16     6     7   ar
    17     7     8   ar
    18     8     9   ar
    19     9    12    1
    20    12    13   am
    21    12    14    2
    22     9    10   ar
    23    10    11   ar
    24    11     2   ar
    25    26    20   ar
    26    10     5   ar
    27    17    18    1
    28    13    15    1
    29    13    16    1
@<TRIPOS>MOLECULE
*****
 27 29 0 0 0
SMALL
GASTEIGER

@<TRIPOS>ATOM
      1 C         143.4320  141.5688  161.0249 C.3     1  UNL1        0.0521
      2 C         142.1476  141.5711  161.7999 C.ar    1  UNL1        0.0606
      3 C         141.5767  140.2808  162.3091 C.ar    1  UNL1        0.0290
      4 C         140.2924  140.2830  163.0841 C.ar    1  UNL1        0.0475
      5 C         139.5790  141.5756  163.3498 C.ar    1  UNL1        0.0309
      6 C         138.2947  141.5778  164.1247 C.ar    1  UNL1        0.0027
      7 C         137.5814  142.8702  164.3904 C.ar    1  UNL1        0.0003
      8 C         138.1523  144.1605  163.8811 C.ar    1  UNL1        0.0060
      9 C         139.4366  144.1582  163.1062 C.ar    1  UNL1        0.0708
     10 C         140.1499  142.8658  162.8405 C.ar    1  UNL1        0.0864
     11 N         141.4343  142.8635  162.0655 N.ar    1  UNL1       -0.2494
     12 C         140.0075  145.4485  162.5969 C.2     1  UNL1        0.2442
     13 N         141.3422  145.9240  163.0890 N.am    1  UNL1       -0.3253
     14 O         139.2436  146.2631  161.5955 O.2     1  UNL1       -0.2703
     15 H         141.8436  145.3893  163.7463 H       1  UNL1        0.1453
     16 H         141.7169  146.7709  162.7548 H       1  UNL1        0.1453
     17 N         139.7215  138.9928  163.5933 N.pl3   1  UNL1       -0.3290
     18 H         138.9632  138.5721  163.1273 H       1  UNL1        0.1471
     19 C         140.3059  138.3436  164.8127 C.3     1  UNL1        0.1137
     20 C         140.4707  139.1337  166.0770 C.ar    1  UNL1       -0.0105
     21 C         139.2888  139.3791  166.9675 C.ar    1  UNL1       -0.0245
     22 C         137.9422  138.8344  166.5936 C.3     1  UNL1        0.0307
     23 C         139.4536  140.1692  168.2318 C.ar    1  UNL1       -0.0045
     24 C         140.8003  140.7139  168.6057 C.ar    1  UNL1       -0.0007
     25 C         141.9822  140.4685  167.7152 C.ar    1  UNL1       -0.0045
     26 C         141.8174  139.6784  166.4509 C.ar    1  UNL1       -0.0245
     27 C         142.9993  139.4329  165.5604 C.3     1  UNL1        0.0307
@<TRIPOS>BOND
     1     1     2    1
     2     2     3   ar
     3     3     4   ar
     4     4    17    1
     5    17    19    1
     6    19    20    1
     7    20    21   ar
     8    21    22    1
     9    21    23   ar
    10    23    24   ar
    11    24    25   ar
    12    25    26   ar
    13    26    27    1
    14     4     5   ar
    15     5     6   ar
    16     6     7   ar
    17     7     8   ar
    18     8     9   ar
    19     9    12    1
    20    12    13   am
    21    12    14    2
    22     9    10   ar
    23    10    11   ar
    24    11     2   ar
    25    26    20   ar
    26    10     5   ar
    27    17    18    1
    28    13    15    1
    29    13    16    1
@<TRIPOS>MOLECULE
*****
 27 29 0 0 0
SMALL
GASTEIGER

@<TRIPOS>ATOM
      1 C         139.9943  143.7474  164.8963 C.3     1  UNL1        0.0521
      2 C         140.5791  142.7013  165.7984 C.ar    1  UNL1        0.0606
      3 C         141.3444  141.5506  165.2151 C.ar    1  UNL1        0.0290
      4 C         141.9292  140.5045  166.1171 C.ar    1  UNL1        0.0475
      5 C         141.7486  140.6091  167.6026 C.ar    1  UNL1        0.0309
      6 C         142.3334  139.5630  168.5046 C.ar    1  UNL1        0.0027
      7 C         142.1529  139.6676  169.9900 C.ar    1  UNL1        0.0003
      8 C         141.3876  140.8182  170.5734 C.ar    1  UNL1        0.0060
      9 C         140.8028  141.8643  169.6713 C.ar    1  UNL1        0.0708
     10 C         140.9833  141.7597  168.1859 C.ar    1  UNL1        0.0864
     11 N         140.3985  142.8058  167.2838 N.ar    1  UNL1       -0.2494
     12 C         140.0375  143.0150  170.2547 C.2     1  UNL1        0.2442
     13 N         140.5094  144.4208  170.0292 N.am    1  UNL1       -0.3253
     14 O         138.8003  142.7598  171.0634 O.2     1  UNL1       -0.2703
     15 H         141.3214  144.5883  169.4984 H       1  UNL1        0.1453
     16 H         140.0071  145.1760  170.4121 H       1  UNL1        0.1453
     17 N         142.6945  139.3539  165.5338 N.pl3   1  UNL1       -0.3290
     18 H         143.6691  139.4219  165.4125 H       1  UNL1        0.1471
     19 C         141.9748  138.0996  165.1351 C.3     1  UNL1        0.1137
     20 C         141.0720  138.1014  163.9372 C.ar    1  UNL1       -0.0105
     21 C         139.5832  138.0936  164.1202 C.ar    1  UNL1       -0.0245
     22 C         138.9972  138.0841  165.5009 C.3     1  UNL1        0.0307
     23 C         138.6804  138.0953  162.9223 C.ar    1  UNL1       -0.0045
     24 C         139.2665  138.1048  161.5415 C.ar    1  UNL1       -0.0007
     25 C         140.7552  138.1126  161.3586 C.ar    1  UNL1       -0.0045
     26 C         141.6580  138.1109  162.5565 C.ar    1  UNL1       -0.0245
     27 C         143.1469  138.1186  162.3736 C.3     1  UNL1        0.0307
@<TRIPOS>BOND
     1     1     2    1
     2     2     3   ar
     3     3     4   ar
     4     4    17    1
     5    17    19    1
     6    19    20    1
     7    20    21   ar
     8    21    22    1
     9    21    23   ar
    10    23    24   ar
    11    24    25   ar
    12    25    26   ar
    13    26    27    1
    14     4     5   ar
    15     5     6   ar
    16     6     7   ar
    17     7     8   ar
    18     8     9   ar
    19     9    12    1
    20    12    13   am
    21    12    14    2
    22     9    10   ar
    23    10    11   ar
    24    11     2   ar
    25    26    20   ar
    26    10     5   ar
    27    17    18    1
    28    13    15    1
    29    13    16    1
