@<TRIPOS>MOLECULE
*****
 36 40 0 0 0
SMALL
GASTEIGER

@<TRIPOS>ATOM
      1 N         141.8982  138.3060  159.4570 N.3     1  UNL1       -0.2704
      2 C         140.8269  138.8973  160.3244 C.3     1  UNL1        0.0722
      3 C         141.1211  139.2318  161.7567 C.3     1  UNL1        0.0191
      4 C         142.4867  138.9750  162.3216 C.3     1  UNL1        0.0226
      5 C         143.5581  138.3836  161.4542 C.3     1  UNL1        0.0191
      6 C         143.2638  138.0491  160.0220 C.3     1  UNL1        0.0722
      7 C         143.7980  138.7754  163.0222 C.3     1  UNL1        0.0231
      8 C         143.6430  139.2449  164.4385 C.3     1  UNL1        0.0909
      9 N         142.2359  139.7346  164.6131 N.pl3   1  UNL1       -0.3063
     10 C         141.5213  139.5678  163.3049 C.3     1  UNL1        0.0909
     11 C         141.6470  140.2931  165.8745 C.ar    1  UNL1        0.0673
     12 C         140.3219  139.7933  166.3689 C.ar    1  UNL1        0.0174
     13 C         139.7329  140.3518  167.6303 C.ar    1  UNL1        0.0183
     14 C         140.4690  141.4101  168.3973 C.ar    1  UNL1        0.0831
     15 N         141.7941  141.9099  167.9029 N.ar    1  UNL1       -0.2446
     16 C         142.3830  141.3513  166.6415 C.ar    1  UNL1        0.1130
     17 C         139.8800  141.9686  169.6588 C.3     1  UNL1        0.1232
     18 C         139.2381  140.6436  169.9457 C.3     1  UNL1        0.0355
     19 C         140.5219  143.2935  169.3718 C.3     1  UNL1        0.0355
     20 O         139.2910  142.5271  170.9202 O.3     1  UNL1       -0.3812
     21 H         138.7727  141.8396  171.3671 H       1  UNL1        0.2107
     22 C         141.6040  137.9714  158.0247 C.3     1  UNL1        0.1063
     23 C         142.6652  137.3488  157.1667 C.3     1  UNL1        0.1483
     24 O         143.7110  138.2106  156.5236 O.3     1  UNL1       -0.3786
     25 H         144.3154  137.6547  156.0073 H       1  UNL1        0.2108
     26 C         141.0219  136.1340  154.9704 C.3     1  UNL1        0.0306
     27 C         141.8589  135.2569  155.8536 C.ar    1  UNL1       -0.0238
     28 C         142.6806  135.8643  156.9517 C.ar    1  UNL1        0.0015
     29 C         143.5177  134.9873  157.8350 C.ar    1  UNL1       -0.0020
     30 C         143.5331  133.5028  157.6201 C.ar    1  UNL1        0.0060
     31 C         142.7114  132.8955  156.5219 C.ar    1  UNL1        0.0748
     32 C         141.8744  133.7725  155.6387 C.ar    1  UNL1        0.0233
     33 C         141.1730  132.8949  154.6448 C.3     1  UNL1        0.2352
     34 O         141.5766  131.4755  154.9137 O.3     1  UNL1       -0.4404
     35 C         142.5274  131.4759  156.0738 C.2     1  UNL1        0.3413
     36 O         143.1797  130.2685  156.6796 O.2     1  UNL1       -0.2449
@<TRIPOS>BOND
     1    26    27    1
     2    27    28   ar
     3    28    23    1
     4    23    24    1
     5    23    22    1
     6    22     1    1
     7     1     2    1
     8     2     3    1
     9     3     4    1
    10     4     5    1
    11     5     6    1
    12     4     7    1
    13     7     8    1
    14     8     9    1
    15     9    11    1
    16    11    12   ar
    17    12    13   ar
    18    13    14   ar
    19    14    17    1
    20    17    18    1
    21    17    19    1
    22    17    20    1
    23    14    15   ar
    24    15    16   ar
    25     9    10    1
    26    28    29   ar
    27    29    30   ar
    28    30    31   ar
    29    31    32   ar
    30    32    33    1
    31    33    34    1
    32    34    35    1
    33    35    36    2
    34    32    27   ar
    35     6     1    1
    36    16    11   ar
    37    35    31    1
    38    10     4    1
    39    24    25    1
    40    20    21    1
@<TRIPOS>MOLECULE
*****
 36 40 0 0 0
SMALL
GASTEIGER

@<TRIPOS>ATOM
      1 N         143.0850  139.7677  163.1178 N.3     1  UNL1       -0.2704
      2 C         142.6131  138.4065  162.7003 C.3     1  UNL1        0.0722
      3 C         142.5917  138.0331  161.2477 C.3     1  UNL1        0.0191
      4 C         143.0423  139.0208  160.2126 C.3     1  UNL1        0.0226
      5 C         143.5142  140.3820  160.6302 C.3     1  UNL1        0.0191
      6 C         143.5356  140.7555  162.0828 C.3     1  UNL1        0.0722
      7 C         143.4607  139.8985  159.0704 C.3     1  UNL1        0.0231
      8 C         143.2758  139.1242  157.7990 C.3     1  UNL1        0.0909
      9 N         142.7431  137.7680  158.1555 N.pl3   1  UNL1       -0.3063
     10 C         142.5989  137.7041  159.6472 C.3     1  UNL1        0.0909
     11 C         142.4128  136.6688  157.1899 C.ar    1  UNL1        0.0673
     12 C         141.2937  136.8452  156.2069 C.ar    1  UNL1        0.0174
     13 C         140.9634  135.7459  155.2412 C.ar    1  UNL1        0.0183
     14 C         141.7522  134.4702  155.2586 C.ar    1  UNL1        0.0831
     15 N         142.8714  134.2937  156.2417 N.ar    1  UNL1       -0.2446
     16 C         143.2017  135.3931  157.2073 C.ar    1  UNL1        0.1130
     17 C         141.4219  133.3709  154.2930 C.3     1  UNL1        0.1232
     18 C         141.6240  132.3561  155.3790 C.3     1  UNL1        0.0355
     19 C         141.2197  134.3855  153.2070 C.3     1  UNL1        0.0355
     20 O         141.0915  132.2715  153.3273 O.3     1  UNL1       -0.3812
     21 H         141.1436  131.4159  153.7813 H       1  UNL1        0.2107
     22 C         143.1063  140.1412  164.5705 C.3     1  UNL1        0.1063
     23 C         142.1684  141.1907  165.0889 C.3     1  UNL1        0.1483
     24 O         142.0413  142.5026  164.3730 O.3     1  UNL1       -0.3786
     25 H         141.3983  143.0625  164.8357 H       1  UNL1        0.2108
     26 C         143.1077  142.2165  167.7470 C.3     1  UNL1        0.0306
     27 C         141.8272  141.4411  167.6523 C.ar    1  UNL1       -0.0238
     28 C         141.3575  140.9282  166.3233 C.ar    1  UNL1        0.0015
     29 C         140.0770  140.1528  166.2286 C.ar    1  UNL1       -0.0020
     30 C         139.2661  139.8903  167.4628 C.ar    1  UNL1        0.0060
     31 C         139.7357  140.4032  168.7918 C.ar    1  UNL1        0.0748
     32 C         141.0163  141.1786  168.8866 C.ar    1  UNL1        0.0233
     33 C         141.2246  141.5557  170.3234 C.3     1  UNL1        0.2352
     34 O         140.0729  141.0133  171.1167 O.3     1  UNL1       -0.4404
     35 C         139.1527  140.3011  170.1701 C.2     1  UNL1        0.3413
     36 O         137.8739  139.6083  170.5374 O.2     1  UNL1       -0.2449
@<TRIPOS>BOND
     1    26    27    1
     2    27    28   ar
     3    28    23    1
     4    23    24    1
     5    23    22    1
     6    22     1    1
     7     1     2    1
     8     2     3    1
     9     3     4    1
    10     4     5    1
    11     5     6    1
    12     4     7    1
    13     7     8    1
    14     8     9    1
    15     9    11    1
    16    11    12   ar
    17    12    13   ar
    18    13    14   ar
    19    14    17    1
    20    17    18    1
    21    17    19    1
    22    17    20    1
    23    14    15   ar
    24    15    16   ar
    25     9    10    1
    26    28    29   ar
    27    29    30   ar
    28    30    31   ar
    29    31    32   ar
    30    32    33    1
    31    33    34    1
    32    34    35    1
    33    35    36    2
    34    32    27   ar
    35     6     1    1
    36    16    11   ar
    37    35    31    1
    38    10     4    1
    39    24    25    1
    40    20    21    1
@<TRIPOS>MOLECULE
*****
 36 40 0 0 0
SMALL
GASTEIGER

@<TRIPOS>ATOM
      1 N         141.0582  138.5922  160.0543 N.3     1  UNL1       -0.2704
      2 C         140.3086  139.0780  161.2593 C.3     1  UNL1        0.0722
      3 C         141.0456  139.3757  162.5314 C.3     1  UNL1        0.0191
      4 C         142.5322  139.1876  162.5984 C.3     1  UNL1        0.0226
      5 C         143.2819  138.7019  161.3934 C.3     1  UNL1        0.0191
      6 C         142.5448  138.4042  160.1214 C.3     1  UNL1        0.0722
      7 C         144.0100  139.0479  162.8146 C.3     1  UNL1        0.0231
      8 C         144.3120  139.4513  164.2275 C.3     1  UNL1        0.0909
      9 N         143.0208  139.8403  164.8845 N.pl3   1  UNL1       -0.3063
     10 C         141.9209  139.6774  163.8777 C.3     1  UNL1        0.0909
     11 C         142.8582  140.3098  166.2998 C.ar    1  UNL1        0.0673
     12 C         142.6788  139.3118  167.4051 C.ar    1  UNL1        0.0174
     13 C         142.5162  139.7813  168.8204 C.ar    1  UNL1        0.0183
     14 C         142.5328  141.2488  169.1304 C.ar    1  UNL1        0.0831
     15 N         142.7122  142.2469  168.0250 N.ar    1  UNL1       -0.2446
     16 C         142.8748  141.7773  166.6097 C.ar    1  UNL1        0.1130
     17 C         142.3702  141.7184  170.5457 C.3     1  UNL1        0.1232
     18 C         141.4358  140.5767  170.8171 C.3     1  UNL1        0.0355
     19 C         143.3045  142.8600  170.2744 C.3     1  UNL1        0.0355
     20 O         142.2075  142.1879  171.9610 O.3     1  UNL1       -0.3812
     21 H         141.6028  141.5931  172.4316 H       1  UNL1        0.2107
     22 C         140.3212  138.2945  158.7822 C.3     1  UNL1        0.1063
     23 C         139.6646  139.4058  158.0181 C.3     1  UNL1        0.1483
     24 O         138.8870  139.1019  156.7720 O.3     1  UNL1       -0.3786
     25 H         138.5309  139.9257  156.4041 H       1  UNL1        0.2108
     26 C         142.1328  140.9951  157.4001 C.3     1  UNL1        0.0306
     27 C         141.0197  141.6157  158.1912 C.ar    1  UNL1       -0.0238
     28 C         139.7856  140.8211  158.5002 C.ar    1  UNL1        0.0015
     29 C         138.6725  141.4417  159.2913 C.ar    1  UNL1       -0.0020
     30 C         138.7935  142.8569  159.7734 C.ar    1  UNL1        0.0060
     31 C         140.0276  143.6515  159.4644 C.ar    1  UNL1        0.0748
     32 C         141.1407  143.0310  158.6733 C.ar    1  UNL1        0.0233
     33 C         142.2287  144.0527  158.5239 C.3     1  UNL1        0.2352
     34 O         141.7881  145.3047  159.2226 O.3     1  UNL1       -0.4404
     35 C         140.4277  145.0568  159.8039 C.2     1  UNL1        0.3413
     36 O         139.6108  146.0412  160.5872 O.2     1  UNL1       -0.2449
@<TRIPOS>BOND
     1    26    27    1
     2    27    28   ar
     3    28    23    1
     4    23    24    1
     5    23    22    1
     6    22     1    1
     7     1     2    1
     8     2     3    1
     9     3     4    1
    10     4     5    1
    11     5     6    1
    12     4     7    1
    13     7     8    1
    14     8     9    1
    15     9    11    1
    16    11    12   ar
    17    12    13   ar
    18    13    14   ar
    19    14    17    1
    20    17    18    1
    21    17    19    1
    22    17    20    1
    23    14    15   ar
    24    15    16   ar
    25     9    10    1
    26    28    29   ar
    27    29    30   ar
    28    30    31   ar
    29    31    32   ar
    30    32    33    1
    31    33    34    1
    32    34    35    1
    33    35    36    2
    34    32    27   ar
    35     6     1    1
    36    16    11   ar
    37    35    31    1
    38    10     4    1
    39    24    25    1
    40    20    21    1
@<TRIPOS>MOLECULE
*****
 36 40 0 0 0
SMALL
GASTEIGER

@<TRIPOS>ATOM
      1 N         143.7588  139.7357  162.7893 N.3     1  UNL1       -0.2704
      2 C         143.3922  138.3282  162.4224 C.3     1  UNL1        0.0722
      3 C         143.1610  137.9637  160.9859 C.3     1  UNL1        0.0191
      4 C         143.2964  139.0066  159.9163 C.3     1  UNL1        0.0226
      5 C         143.6630  140.4140  160.2832 C.3     1  UNL1        0.0191
      6 C         143.8942  140.7786  161.7197 C.3     1  UNL1        0.0722
      7 C         143.3950  139.9368  158.7437 C.3     1  UNL1        0.0231
      8 C         143.0856  139.1529  157.5027 C.3     1  UNL1        0.0909
      9 N         142.7957  137.7381  157.9085 N.pl3   1  UNL1       -0.3063
     10 C         142.9260  137.6477  159.4000 C.3     1  UNL1        0.0909
     11 C         142.4383  136.6117  156.9848 C.ar    1  UNL1        0.0673
     12 C         143.1122  135.2796  157.1307 C.ar    1  UNL1        0.0174
     13 C         142.7547  134.1530  156.2070 C.ar    1  UNL1        0.0183
     14 C         141.7235  134.3587  155.1373 C.ar    1  UNL1        0.0831
     15 N         141.0495  135.6909  154.9914 N.ar    1  UNL1       -0.2446
     16 C         141.4070  136.8173  155.9151 C.ar    1  UNL1        0.1130
     17 C         141.3660  133.2322  154.2136 C.3     1  UNL1        0.1232
     18 C         141.2754  134.1986  153.0700 C.3     1  UNL1        0.0355
     19 C         141.4566  132.2658  155.3571 C.3     1  UNL1        0.0355
     20 O         141.0086  132.1056  153.2899 O.3     1  UNL1       -0.3812
     21 H         140.8763  132.4521  152.3936 H       1  UNL1        0.2107
     22 C         143.9900  140.1003  164.2259 C.3     1  UNL1        0.1063
     23 C         142.8228  140.3712  165.1281 C.3     1  UNL1        0.1483
     24 O         142.8462  139.8917  166.5492 O.3     1  UNL1       -0.3786
     25 H         142.0212  140.1478  166.9905 H       1  UNL1        0.2108
     26 C         140.3252  138.8881  164.3780 C.3     1  UNL1        0.0306
     27 C         140.3833  140.3801  164.2342 C.ar    1  UNL1       -0.0238
     28 C         141.6321  141.1216  164.6093 C.ar    1  UNL1        0.0015
     29 C         141.6902  142.6136  164.4655 C.ar    1  UNL1       -0.0020
     30 C         140.4995  143.3640  163.9467 C.ar    1  UNL1        0.0060
     31 C         139.2508  142.6225  163.5717 C.ar    1  UNL1        0.0748
     32 C         139.1927  141.1305  163.7154 C.ar    1  UNL1        0.0233
     33 C         137.8352  140.6744  163.2690 C.3     1  UNL1        0.2352
     34 O         137.0544  141.8844  162.8494 O.3     1  UNL1       -0.4404
     35 C         137.9292  143.0883  163.0364 C.2     1  UNL1        0.3413
     36 O         137.5493  144.5089  162.7402 O.2     1  UNL1       -0.2449
@<TRIPOS>BOND
     1    26    27    1
     2    27    28   ar
     3    28    23    1
     4    23    24    1
     5    23    22    1
     6    22     1    1
     7     1     2    1
     8     2     3    1
     9     3     4    1
    10     4     5    1
    11     5     6    1
    12     4     7    1
    13     7     8    1
    14     8     9    1
    15     9    11    1
    16    11    12   ar
    17    12    13   ar
    18    13    14   ar
    19    14    17    1
    20    17    18    1
    21    17    19    1
    22    17    20    1
    23    14    15   ar
    24    15    16   ar
    25     9    10    1
    26    28    29   ar
    27    29    30   ar
    28    30    31   ar
    29    31    32   ar
    30    32    33    1
    31    33    34    1
    32    34    35    1
    33    35    36    2
    34    32    27   ar
    35     6     1    1
    36    16    11   ar
    37    35    31    1
    38    10     4    1
    39    24    25    1
    40    20    21    1
@<TRIPOS>MOLECULE
*****
 36 40 0 0 0
SMALL
GASTEIGER

@<TRIPOS>ATOM
      1 N         139.2074  139.6774  160.0691 N.3     1  UNL1       -0.2704
      2 C         139.5452  140.7823  161.0257 C.3     1  UNL1        0.0722
      3 C         139.8388  140.4668  162.4624 C.3     1  UNL1        0.0191
      4 C         139.7947  139.0464  162.9425 C.3     1  UNL1        0.0226
      5 C         139.4570  137.9415  161.9860 C.3     1  UNL1        0.0191
      6 C         139.1633  138.2570  160.5493 C.3     1  UNL1        0.0722
      7 C         139.7890  137.6815  163.5645 C.3     1  UNL1        0.0231
      8 C         140.1364  137.8320  165.0160 C.3     1  UNL1        0.0909
      9 N         140.3569  139.2900  165.2911 N.pl3   1  UNL1       -0.3063
     10 C         140.1457  140.0406  164.0097 C.3     1  UNL1        0.0909
     11 C         140.7240  139.8918  166.6150 C.ar    1  UNL1        0.0673
     12 C         139.6829  140.0446  167.6840 C.ar    1  UNL1        0.0174
     13 C         140.0501  140.6464  169.0080 C.ar    1  UNL1        0.0183
     14 C         141.4584  141.0954  169.2631 C.ar    1  UNL1        0.0831
     15 N         142.4996  140.9426  168.1941 N.ar    1  UNL1       -0.2446
     16 C         142.1323  140.3408  166.8701 C.ar    1  UNL1        0.1130
     17 C         141.8256  141.6972  170.5871 C.3     1  UNL1        0.1232
     18 C         142.7847  142.6235  169.9001 C.3     1  UNL1        0.0355
     19 C         140.8665  140.7708  171.2741 C.3     1  UNL1        0.0355
     20 O         142.1928  142.2989  171.9112 O.3     1  UNL1       -0.3812
     21 H         142.8567  142.9934  171.7777 H       1  UNL1        0.2107
     22 C         138.9138  139.9928  158.6323 C.3     1  UNL1        0.1063
     23 C         140.0221  139.9876  157.6216 C.3     1  UNL1        0.1483
     24 O         140.3617  141.2431  156.8743 O.3     1  UNL1       -0.3786
     25 H         141.0956  141.0680  156.2648 H       1  UNL1        0.2108
     26 C         139.0840  138.0716  155.5122 C.3     1  UNL1        0.0306
     27 C         140.3219  137.7688  156.3035 C.ar    1  UNL1       -0.0238
     28 C         140.7909  138.7267  157.3581 C.ar    1  UNL1        0.0015
     29 C         142.0287  138.4239  158.1494 C.ar    1  UNL1       -0.0020
     30 C         142.7975  137.1632  157.8860 C.ar    1  UNL1        0.0060
     31 C         142.3285  136.2053  156.8313 C.ar    1  UNL1        0.0748
     32 C         141.0907  136.5081  156.0401 C.ar    1  UNL1        0.0233
     33 C         140.8728  135.3834  155.0718 C.3     1  UNL1        0.2352
     34 O         141.9759  134.3854  155.2646 O.3     1  UNL1       -0.4404
     35 C         142.8756  134.8934  156.3520 C.2     1  UNL1        0.3413
     36 O         144.1064  134.2096  156.8694 O.2     1  UNL1       -0.2449
@<TRIPOS>BOND
     1    26    27    1
     2    27    28   ar
     3    28    23    1
     4    23    24    1
     5    23    22    1
     6    22     1    1
     7     1     2    1
     8     2     3    1
     9     3     4    1
    10     4     5    1
    11     5     6    1
    12     4     7    1
    13     7     8    1
    14     8     9    1
    15     9    11    1
    16    11    12   ar
    17    12    13   ar
    18    13    14   ar
    19    14    17    1
    20    17    18    1
    21    17    19    1
    22    17    20    1
    23    14    15   ar
    24    15    16   ar
    25     9    10    1
    26    28    29   ar
    27    29    30   ar
    28    30    31   ar
    29    31    32   ar
    30    32    33    1
    31    33    34    1
    32    34    35    1
    33    35    36    2
    34    32    27   ar
    35     6     1    1
    36    16    11   ar
    37    35    31    1
    38    10     4    1
    39    24    25    1
    40    20    21    1
@<TRIPOS>MOLECULE
*****
 36 40 0 0 0
SMALL
GASTEIGER

@<TRIPOS>ATOM
      1 N         139.4399  139.4852  159.8606 N.3     1  UNL1       -0.2704
      2 C         139.9080  140.6900  160.6217 C.3     1  UNL1        0.0722
      3 C         140.2025  140.5827  162.0886 C.3     1  UNL1        0.0191
      4 C         140.0288  139.2705  162.7944 C.3     1  UNL1        0.0226
      5 C         139.5607  138.0657  162.0333 C.3     1  UNL1        0.0191
      6 C         139.2662  138.1731  160.5664 C.3     1  UNL1        0.0722
      7 C         139.9021  138.0318  163.6307 C.3     1  UNL1        0.0231
      8 C         140.2967  138.3787  165.0358 C.3     1  UNL1        0.0909
      9 N         140.6672  139.8319  165.0677 N.pl3   1  UNL1       -0.3063
     10 C         140.5017  140.3831  163.6825 C.3     1  UNL1        0.0909
     11 C         141.1232  140.5992  166.2732 C.ar    1  UNL1        0.0673
     12 C         142.4881  141.2209  166.2944 C.ar    1  UNL1        0.0174
     13 C         142.9441  141.9882  167.4999 C.ar    1  UNL1        0.0183
     14 C         142.0352  142.1338  168.6843 C.ar    1  UNL1        0.0831
     15 N         140.6703  141.5120  168.6631 N.ar    1  UNL1       -0.2446
     16 C         140.2143  140.7447  167.4576 C.ar    1  UNL1        0.1130
     17 C         142.4913  142.9011  169.8898 C.3     1  UNL1        0.1232
     18 C         143.8412  142.2547  169.7906 C.3     1  UNL1        0.0355
     19 C         141.1414  143.5475  169.9890 C.3     1  UNL1        0.0355
     20 O         142.9473  143.6684  171.0954 O.3     1  UNL1       -0.3812
     21 H         143.8686  143.4397  171.2947 H       1  UNL1        0.2107
     22 C         139.1454  139.5926  158.3937 C.3     1  UNL1        0.1063
     23 C         140.2645  139.5250  157.3972 C.3     1  UNL1        0.1483
     24 O         141.0062  140.7720  157.0166 O.3     1  UNL1       -0.3786
     25 H         141.6928  140.5543  156.3669 H       1  UNL1        0.2108
     26 C         142.6062  137.9846  158.4667 C.3     1  UNL1        0.0306
     27 C         141.8128  137.4402  157.3160 C.ar    1  UNL1       -0.0238
     28 C         140.6419  138.2103  156.7813 C.ar    1  UNL1        0.0015
     29 C         139.8485  137.6659  155.6306 C.ar    1  UNL1       -0.0020
     30 C         140.2259  136.3514  155.0146 C.ar    1  UNL1        0.0060
     31 C         141.3967  135.5812  155.5494 C.ar    1  UNL1        0.0748
     32 C         142.1902  136.1256  156.7001 C.ar    1  UNL1        0.0233
     33 C         143.2855  135.1491  157.0111 C.3     1  UNL1        0.2352
     34 O         143.1690  134.0012  156.0526 O.3     1  UNL1       -0.4404
     35 C         142.0017  134.2682  155.1493 C.2     1  UNL1        0.3413
     36 O         141.5234  133.3785  154.0404 O.2     1  UNL1       -0.2449
@<TRIPOS>BOND
     1    26    27    1
     2    27    28   ar
     3    28    23    1
     4    23    24    1
     5    23    22    1
     6    22     1    1
     7     1     2    1
     8     2     3    1
     9     3     4    1
    10     4     5    1
    11     5     6    1
    12     4     7    1
    13     7     8    1
    14     8     9    1
    15     9    11    1
    16    11    12   ar
    17    12    13   ar
    18    13    14   ar
    19    14    17    1
    20    17    18    1
    21    17    19    1
    22    17    20    1
    23    14    15   ar
    24    15    16   ar
    25     9    10    1
    26    28    29   ar
    27    29    30   ar
    28    30    31   ar
    29    31    32   ar
    30    32    33    1
    31    33    34    1
    32    34    35    1
    33    35    36    2
    34    32    27   ar
    35     6     1    1
    36    16    11   ar
    37    35    31    1
    38    10     4    1
    39    24    25    1
    40    20    21    1
@<TRIPOS>MOLECULE
*****
 36 40 0 0 0
SMALL
GASTEIGER

@<TRIPOS>ATOM
      1 N         141.3732  145.1335  160.1845 N.3     1  UNL1       -0.2704
      2 C         142.2878  144.3275  161.0585 C.3     1  UNL1        0.0722
      3 C         141.8766  143.9846  162.4597 C.3     1  UNL1        0.0191
      4 C         140.5508  144.4477  162.9868 C.3     1  UNL1        0.0226
      5 C         139.6363  145.2537  162.1128 C.3     1  UNL1        0.0191
      6 C         140.0475  145.5966  160.7117 C.3     1  UNL1        0.0722
      7 C         139.2627  144.8390  163.6484 C.3     1  UNL1        0.0231
      8 C         139.2713  144.2864  165.0430 C.3     1  UNL1        0.0909
      9 N         140.5648  143.5536  165.2433 N.pl3   1  UNL1       -0.3063
     10 C         141.3555  143.6533  163.9725 C.3     1  UNL1        0.0909
     11 C         140.9923  142.8456  166.4945 C.ar    1  UNL1        0.0673
     12 C         140.2620  143.0903  167.7816 C.ar    1  UNL1        0.0174
     13 C         140.6896  142.3821  169.0329 C.ar    1  UNL1        0.0183
     14 C         141.8475  141.4293  168.9971 C.ar    1  UNL1        0.0831
     15 N         142.5779  141.1846  167.7099 N.ar    1  UNL1       -0.2446
     16 C         142.1503  141.8927  166.4587 C.ar    1  UNL1        0.1130
     17 C         142.2752  140.7212  170.2484 C.3     1  UNL1        0.1232
     18 C         142.4755  139.4578  169.4650 C.3     1  UNL1        0.0355
     19 C         142.0748  141.9845  171.0318 C.3     1  UNL1        0.0355
     20 O         142.7028  140.0130  171.4997 O.3     1  UNL1       -0.3812
     21 H         142.9171  139.0902  171.2918 H       1  UNL1        0.2107
     22 C         141.7844  145.4764  158.7833 C.3     1  UNL1        0.1063
     23 C         141.7579  144.4238  157.7150 C.3     1  UNL1        0.1483
     24 O         143.0314  144.0073  157.0406 O.3     1  UNL1       -0.3786
     25 H         142.8390  143.3231  156.3806 H       1  UNL1        0.2108
     26 C         140.9458  141.7997  158.9211 C.3     1  UNL1        0.0306
     27 C         140.0518  142.4755  157.9241 C.ar    1  UNL1       -0.0238
     28 C         140.4579  143.7876  157.3211 C.ar    1  UNL1        0.0015
     29 C         139.5639  144.4634  156.3241 C.ar    1  UNL1       -0.0020
     30 C         138.2639  143.8273  155.9301 C.ar    1  UNL1        0.0060
     31 C         137.8579  142.5152  156.5332 C.ar    1  UNL1        0.0748
     32 C         138.7518  141.8394  157.5301 C.ar    1  UNL1        0.0233
     33 C         138.0913  140.5607  157.9530 C.3     1  UNL1        0.2352
     34 O         136.7891  140.4464  157.2174 O.3     1  UNL1       -0.4404
     35 C         136.6448  141.6543  156.3399 C.2     1  UNL1        0.3413
     36 O         135.4902  141.9495  155.4290 O.2     1  UNL1       -0.2449
@<TRIPOS>BOND
     1    26    27    1
     2    27    28   ar
     3    28    23    1
     4    23    24    1
     5    23    22    1
     6    22     1    1
     7     1     2    1
     8     2     3    1
     9     3     4    1
    10     4     5    1
    11     5     6    1
    12     4     7    1
    13     7     8    1
    14     8     9    1
    15     9    11    1
    16    11    12   ar
    17    12    13   ar
    18    13    14   ar
    19    14    17    1
    20    17    18    1
    21    17    19    1
    22    17    20    1
    23    14    15   ar
    24    15    16   ar
    25     9    10    1
    26    28    29   ar
    27    29    30   ar
    28    30    31   ar
    29    31    32   ar
    30    32    33    1
    31    33    34    1
    32    34    35    1
    33    35    36    2
    34    32    27   ar
    35     6     1    1
    36    16    11   ar
    37    35    31    1
    38    10     4    1
    39    24    25    1
    40    20    21    1
@<TRIPOS>MOLECULE
*****
 36 40 0 0 0
SMALL
GASTEIGER

@<TRIPOS>ATOM
      1 N         137.8287  140.0301  160.3152 N.3     1  UNL1       -0.2704
      2 C         137.9396  141.0965  161.3642 C.3     1  UNL1        0.0722
      3 C         138.4209  140.7468  162.7411 C.3     1  UNL1        0.0191
      4 C         138.7914  139.3307  163.0690 C.3     1  UNL1        0.0226
      5 C         138.6806  138.2644  162.0200 C.3     1  UNL1        0.0191
      6 C         138.1992  138.6140  160.6431 C.3     1  UNL1        0.0722
      7 C         139.1956  137.9657  163.5416 C.3     1  UNL1        0.0231
      8 C         139.6072  138.0760  164.9799 C.3     1  UNL1        0.0909
      9 N         139.4573  139.5093  165.3962 N.pl3   1  UNL1       -0.3063
     10 C         138.9531  140.2848  164.2153 C.3     1  UNL1        0.0909
     11 C         139.7586  140.0689  166.7548 C.ar    1  UNL1        0.0673
     12 C         138.9032  139.6918  167.9279 C.ar    1  UNL1        0.0174
     13 C         139.2046  140.2514  169.2866 C.ar    1  UNL1        0.0183
     14 C         140.3613  141.1881  169.4722 C.ar    1  UNL1        0.0831
     15 N         141.2168  141.5652  168.2992 N.ar    1  UNL1       -0.2446
     16 C         140.9154  141.0056  166.9405 C.ar    1  UNL1        0.1130
     17 C         140.6627  141.7477  170.8310 C.3     1  UNL1        0.1232
     18 C         141.6266  140.6256  171.0793 C.3     1  UNL1        0.0355
     19 C         139.6988  142.8697  170.5826 C.3     1  UNL1        0.0355
     20 O         140.9640  142.3073  172.1897 O.3     1  UNL1       -0.3812
     21 H         141.6167  141.7437  172.6339 H       1  UNL1        0.2107
     22 C         137.3473  140.3797  158.9382 C.3     1  UNL1        0.1063
     23 C         138.3343  140.5757  157.8259 C.3     1  UNL1        0.1483
     24 O         138.5218  139.5050  156.7922 O.3     1  UNL1       -0.3786
     25 H         139.1911  139.7890  156.1501 H       1  UNL1        0.2108
     26 C         137.4334  142.8097  156.0377 C.3     1  UNL1        0.0306
     27 C         138.6835  142.9593  156.8531 C.ar    1  UNL1       -0.0238
     28 C         139.1340  141.8424  157.7472 C.ar    1  UNL1        0.0015
     29 C         140.3841  141.9920  158.5625 C.ar    1  UNL1       -0.0020
     30 C         141.1837  143.2586  158.4839 C.ar    1  UNL1        0.0060
     31 C         140.7333  144.3756  157.5898 C.ar    1  UNL1        0.0748
     32 C         139.4832  144.2260  156.7745 C.ar    1  UNL1        0.0233
     33 C         139.2886  145.4886  155.9884 C.3     1  UNL1        0.2352
     34 O         140.4184  146.4186  156.3179 O.3     1  UNL1       -0.4404
     35 C         141.3113  145.7307  157.3077 C.2     1  UNL1        0.3413
     36 O         142.5625  146.2982  157.9096 O.2     1  UNL1       -0.2449
@<TRIPOS>BOND
     1    26    27    1
     2    27    28   ar
     3    28    23    1
     4    23    24    1
     5    23    22    1
     6    22     1    1
     7     1     2    1
     8     2     3    1
     9     3     4    1
    10     4     5    1
    11     5     6    1
    12     4     7    1
    13     7     8    1
    14     8     9    1
    15     9    11    1
    16    11    12   ar
    17    12    13   ar
    18    13    14   ar
    19    14    17    1
    20    17    18    1
    21    17    19    1
    22    17    20    1
    23    14    15   ar
    24    15    16   ar
    25     9    10    1
    26    28    29   ar
    27    29    30   ar
    28    30    31   ar
    29    31    32   ar
    30    32    33    1
    31    33    34    1
    32    34    35    1
    33    35    36    2
    34    32    27   ar
    35     6     1    1
    36    16    11   ar
    37    35    31    1
    38    10     4    1
    39    24    25    1
    40    20    21    1
@<TRIPOS>MOLECULE
*****
 36 40 0 0 0
SMALL
GASTEIGER

@<TRIPOS>ATOM
      1 N         141.3881  138.3709  160.0647 N.3     1  UNL1       -0.2704
      2 C         142.1651  138.6796  161.3100 C.3     1  UNL1        0.0722
      3 C         141.4506  139.1472  162.5432 C.3     1  UNL1        0.0191
      4 C         139.9591  139.3062  162.5310 C.3     1  UNL1        0.0226
      5 C         139.1821  138.9976  161.2856 C.3     1  UNL1        0.0191
      6 C         139.8966  138.5299  160.0524 C.3     1  UNL1        0.0722
      7 C         138.4795  139.5112  162.6684 C.3     1  UNL1        0.0231
      8 C         138.2046  139.9827  164.0657 C.3     1  UNL1        0.0909
      9 N         139.5144  140.0691  164.7918 N.pl3   1  UNL1       -0.3063
     10 C         140.5987  139.6510  163.8433 C.3     1  UNL1        0.0909
     11 C         139.7062  140.4982  166.2162 C.ar    1  UNL1        0.0673
     12 C         140.3841  141.8007  166.5223 C.ar    1  UNL1        0.0174
     13 C         140.5759  142.2298  167.9468 C.ar    1  UNL1        0.0183
     14 C         140.0897  141.3564  169.0651 C.ar    1  UNL1        0.0831
     15 N         139.4117  140.0538  168.7590 N.ar    1  UNL1       -0.2446
     16 C         139.2200  139.6247  167.3345 C.ar    1  UNL1        0.1130
     17 C         140.2815  141.7855  170.4896 C.3     1  UNL1        0.1232
     18 C         140.1988  143.2226  170.0678 C.3     1  UNL1        0.0355
     19 C         140.3641  140.3485  170.9114 C.3     1  UNL1        0.0355
     20 O         140.4732  142.2146  171.9141 O.3     1  UNL1       -0.3812
     21 H         140.4642  143.1833  171.9640 H       1  UNL1        0.2107
     22 C         142.1027  137.9033  158.8314 C.3     1  UNL1        0.1063
     23 C         142.7517  138.8998  157.9173 C.3     1  UNL1        0.1483
     24 O         143.7156  138.4362  156.8656 O.3     1  UNL1       -0.3786
     25 H         144.0409  139.2011  156.3656 H       1  UNL1        0.2108
     26 C         140.3495  140.0526  156.5387 C.3     1  UNL1        0.0306
     27 C         141.2357  140.9363  157.3655 C.ar    1  UNL1       -0.0238
     28 C         142.4368  140.3599  158.0548 C.ar    1  UNL1        0.0015
     29 C         143.3230  141.2437  158.8816 C.ar    1  UNL1       -0.0020
     30 C         143.0082  142.7037  159.0192 C.ar    1  UNL1        0.0060
     31 C         141.8071  143.2801  158.3299 C.ar    1  UNL1        0.0748
     32 C         140.9209  142.3964  157.5030 C.ar    1  UNL1        0.0233
     33 C         139.8147  143.2416  156.9445 C.3     1  UNL1        0.2352
     34 O         140.0172  144.6477  157.4262 O.3     1  UNL1       -0.4404
     35 C         141.2486  144.6715  158.2824 C.2     1  UNL1        0.3413
     36 O         141.8210  145.8752  158.9703 O.2     1  UNL1       -0.2449
@<TRIPOS>BOND
     1    26    27    1
     2    27    28   ar
     3    28    23    1
     4    23    24    1
     5    23    22    1
     6    22     1    1
     7     1     2    1
     8     2     3    1
     9     3     4    1
    10     4     5    1
    11     5     6    1
    12     4     7    1
    13     7     8    1
    14     8     9    1
    15     9    11    1
    16    11    12   ar
    17    12    13   ar
    18    13    14   ar
    19    14    17    1
    20    17    18    1
    21    17    19    1
    22    17    20    1
    23    14    15   ar
    24    15    16   ar
    25     9    10    1
    26    28    29   ar
    27    29    30   ar
    28    30    31   ar
    29    31    32   ar
    30    32    33    1
    31    33    34    1
    32    34    35    1
    33    35    36    2
    34    32    27   ar
    35     6     1    1
    36    16    11   ar
    37    35    31    1
    38    10     4    1
    39    24    25    1
    40    20    21    1
