@<TRIPOS>MOLECULE
*****
 39 44 0 0 0
SMALL
GASTEIGER

@<TRIPOS>ATOM
      1 C         144.2119  141.2877  161.6045 C.ar    1  UNL1        0.1801
      2 N         145.4013  142.1839  161.7839 N.ar    1  UNL1       -0.0614
      3 O         145.4232  142.6447  163.2112 O.2     1  UNL1       -0.3498
      4 C         144.2474  142.0333  163.9138 C.ar    1  UNL1        0.2065
      5 C         143.7617  142.1319  165.3296 C.ar    1  UNL1        0.1899
      6 F         144.5103  142.9707  166.3226 F       1  UNL1       -0.1996
      7 C         142.5273  141.3918  165.7523 C.ar    1  UNL1        0.0749
      8 C         141.7787  140.5531  164.7593 C.ar    1  UNL1       -0.0053
      9 C         142.2645  140.4545  163.3435 C.ar    1  UNL1        0.0032
     10 C         143.4988  141.1946  162.9208 C.ar    1  UNL1        0.0744
     11 C         140.5444  139.8130  165.1820 C.3     1  UNL1        0.0468
     12 C         140.0587  139.9117  166.5977 C.3     1  UNL1        0.1606
     13 C         139.3101  139.0729  165.6046 C.2     1  UNL1        0.2387
     14 O         139.7958  138.9743  164.1889 O.2     1  UNL1       -0.2741
     15 N         138.0757  138.3328  166.0274 N.am    1  UNL1       -0.2389
     16 C         137.5900  138.4315  167.4431 C.2     1  UNL1        0.3122
     17 O         136.3557  137.6913  167.8659 O.2     1  UNL1       -0.2520
     18 N         138.3386  139.2702  168.4362 N.am    1  UNL1       -0.2389
     19 C         139.5730  140.0103  168.0135 C.2     1  UNL1        0.2387
     20 O         139.8313  140.3951  168.6621 O.2     1  UNL1       -0.2741
     21 C         140.8073  140.7504  167.5907 C.3     1  UNL1        0.1166
     22 C         140.3216  140.8490  169.0065 C.3     1  UNL1        0.1341
     23 C         139.0873  140.1089  169.4292 C.3     1  UNL1        0.0338
     24 O         141.0702  141.6877  169.9996 O.3     1  UNL1       -0.3553
     25 C         142.3045  142.4278  169.5768 C.3     1  UNL1        0.1349
     26 C         143.0531  143.2666  170.5698 C.3     1  UNL1        0.0339
     27 C         142.7902  142.3292  168.1611 C.3     1  UNL1        0.1205
     28 N         142.0416  141.4905  167.1680 N.pl3   1  UNL1       -0.3019
     29 H         137.5844  137.7823  165.3756 H       1  UNL1        0.1591
     30 H         138.0198  139.3349  169.3654 H       1  UNL1        0.1591
     31 C         143.0869  138.9110  158.7494 C.3     1  UNL1        0.1060
     32 C         143.4126  139.1640  160.1916 C.3     1  UNL1        0.1143
     33 N         143.8068  140.6044  160.3320 N.am    1  UNL1       -0.2317
     34 C         143.7249  141.2417  158.9766 C.2     1  UNL1        0.2812
     35 O         144.0336  142.6740  158.6556 O.2     1  UNL1       -0.2623
     36 S         143.2799  140.1951  157.9985 S.3     1  UNL1       -0.0534
     37 C         142.6457  137.6035  158.1614 C.3     1  UNL1        0.1552
     38 C         143.1737  135.5665  156.6376 C.3     1  UNL1        0.1741
     39 O         143.4119  136.9962  157.0237 O.3     1  UNL1       -0.3501
@<TRIPOS>BOND
     1    38    39    1
     2    39    37    1
     3    31    37    1
     4    31    32    1
     5    32    33    1
     6    33     1    1
     7     1     2   ar
     8     2     3   ar
     9     3     4   ar
    10     4     5   ar
    11     5     6    1
    12     5     7   ar
    13     7     8   ar
    14     8     9   ar
    15     9    10   ar
    16     8    11    1
    17    11    12    1
    18    12    13    1
    19    13    14    2
    20    13    15   am
    21    15    16   am
    22    16    17    2
    23    16    18   am
    24    18    19   am
    25    19    20    2
    26    21    12    1
    27    21    22    1
    28    22    23    1
    29    22    24    1
    30    24    25    1
    31    25    26    1
    32    25    27    1
    33    27    28    1
    34    33    34   am
    35    34    35    2
    36    34    36    1
    37    36    31    1
    38    10     1   ar
    39    19    12    1
    40    28    21    1
    41    10     4   ar
    42    28     7    1
    43    15    29    1
    44    18    30    1
@<TRIPOS>MOLECULE
*****
 39 44 0 0 0
SMALL
GASTEIGER

@<TRIPOS>ATOM
      1 C         140.0624  144.1383  161.5035 C.ar    1  UNL1        0.1801
      2 N         139.1652  145.3052  161.7922 N.ar    1  UNL1       -0.0614
      3 O         138.9408  145.3618  163.2743 O.2     1  UNL1       -0.3498
      4 C         139.6993  144.2299  163.9015 C.ar    1  UNL1        0.2065
      5 C         139.8484  143.7901  165.3278 C.ar    1  UNL1        0.1899
      6 F         139.1552  144.5463  166.4222 F       1  UNL1       -0.1996
      7 C         140.6906  142.5940  165.6597 C.ar    1  UNL1        0.0749
      8 C         141.3838  141.8378  164.5653 C.ar    1  UNL1       -0.0053
      9 C         141.2347  142.2777  163.1390 C.ar    1  UNL1        0.0032
     10 C         140.3925  143.4737  162.8071 C.ar    1  UNL1        0.0744
     11 C         142.2259  140.6418  164.8972 C.3     1  UNL1        0.0468
     12 C         142.3750  140.2020  166.3235 C.3     1  UNL1        0.1606
     13 C         143.0681  139.4458  165.2291 C.2     1  UNL1        0.2387
     14 O         142.9191  139.8856  163.8028 O.2     1  UNL1       -0.2741
     15 N         143.9104  138.2497  165.5610 N.am    1  UNL1       -0.2389
     16 C         144.0594  137.8099  166.9873 C.2     1  UNL1        0.3122
     17 O         144.9017  136.6138  167.3192 O.2     1  UNL1       -0.2520
     18 N         143.3663  138.5661  168.0817 N.am    1  UNL1       -0.2389
     19 C         142.5241  139.7621  167.7498 C.2     1  UNL1        0.2387
     20 O         142.2402  140.0306  168.4447 O.2     1  UNL1       -0.2741
     21 C         141.6818  140.9582  167.4179 C.3     1  UNL1        0.1166
     22 C         141.8309  140.5183  168.8442 C.3     1  UNL1        0.1341
     23 C         142.6731  139.3223  169.1761 C.3     1  UNL1        0.0338
     24 O         141.1378  141.2745  169.9386 O.3     1  UNL1       -0.3553
     25 C         140.2955  142.4706  169.6067 C.3     1  UNL1        0.1349
     26 C         139.6024  143.2268  170.7010 C.3     1  UNL1        0.0339
     27 C         140.1465  142.9104  168.1804 C.3     1  UNL1        0.1205
     28 N         140.8396  142.1542  167.0860 N.pl3   1  UNL1       -0.3019
     29 H         144.3653  137.7534  164.8427 H       1  UNL1        0.1591
     30 H         143.4641  138.2774  169.0178 H       1  UNL1        0.1591
     31 C         141.9879  143.2406  158.2551 C.3     1  UNL1        0.1060
     32 C         141.9622  143.7627  159.6611 C.3     1  UNL1        0.1143
     33 N         140.5447  143.7110  160.1490 N.am    1  UNL1       -0.2317
     34 C         139.6943  143.1568  159.0446 C.2     1  UNL1        0.2812
     35 O         138.2123  142.9327  159.1008 O.2     1  UNL1       -0.2623
     36 S         140.5862  142.8661  157.8742 S.3     1  UNL1       -0.0534
     37 C         143.2019  143.1150  157.3833 C.3     1  UNL1        0.1552
     38 C         145.6262  142.2187  157.1198 C.3     1  UNL1        0.1741
     39 O         144.5255  142.7514  157.9884 O.3     1  UNL1       -0.3501
@<TRIPOS>BOND
     1    38    39    1
     2    39    37    1
     3    31    37    1
     4    31    32    1
     5    32    33    1
     6    33     1    1
     7     1     2   ar
     8     2     3   ar
     9     3     4   ar
    10     4     5   ar
    11     5     6    1
    12     5     7   ar
    13     7     8   ar
    14     8     9   ar
    15     9    10   ar
    16     8    11    1
    17    11    12    1
    18    12    13    1
    19    13    14    2
    20    13    15   am
    21    15    16   am
    22    16    17    2
    23    16    18   am
    24    18    19   am
    25    19    20    2
    26    21    12    1
    27    21    22    1
    28    22    23    1
    29    22    24    1
    30    24    25    1
    31    25    26    1
    32    25    27    1
    33    27    28    1
    34    33    34   am
    35    34    35    2
    36    34    36    1
    37    36    31    1
    38    10     1   ar
    39    19    12    1
    40    28    21    1
    41    10     4   ar
    42    28     7    1
    43    15    29    1
    44    18    30    1
@<TRIPOS>MOLECULE
*****
 39 44 0 0 0
SMALL
GASTEIGER

@<TRIPOS>ATOM
      1 C         143.3641  142.6895  161.0608 C.ar    1  UNL1        0.1801
      2 N         144.5789  143.5559  161.2145 N.ar    1  UNL1       -0.0614
      3 O         144.8384  143.7341  162.6811 O.2     1  UNL1       -0.3498
      4 C         143.7841  142.9779  163.4337 C.ar    1  UNL1        0.2065
      5 C         143.5360  142.7938  164.9015 C.ar    1  UNL1        0.1899
      6 F         144.4472  143.4394  165.9030 F       1  UNL1       -0.1996
      7 C         142.3767  141.9640  165.3680 C.ar    1  UNL1        0.0749
      8 C         141.4655  141.3183  164.3665 C.ar    1  UNL1       -0.0053
      9 C         141.7136  141.5025  162.8986 C.ar    1  UNL1        0.0032
     10 C         142.8729  142.3323  162.4323 C.ar    1  UNL1        0.0744
     11 C         140.3062  140.4886  164.8329 C.3     1  UNL1        0.0468
     12 C         140.0581  140.3044  166.3007 C.3     1  UNL1        0.1606
     13 C         139.1469  139.6588  165.2992 C.2     1  UNL1        0.2387
     14 O         139.3950  139.8430  163.8314 O.2     1  UNL1       -0.2741
     15 N         137.9876  138.8290  165.7656 N.am    1  UNL1       -0.2389
     16 C         137.7395  138.6449  167.2334 C.2     1  UNL1        0.3122
     17 O         136.5802  137.8151  167.6999 O.2     1  UNL1       -0.2520
     18 N         138.6507  139.2905  168.2349 N.am    1  UNL1       -0.2389
     19 C         139.8100  140.1203  167.7685 C.2     1  UNL1        0.2387
     20 O         140.1754  140.3779  168.4286 O.2     1  UNL1       -0.2741
     21 C         140.9693  140.9501  167.3021 C.3     1  UNL1        0.1166
     22 C         140.7212  140.7659  168.7700 C.3     1  UNL1        0.1341
     23 C         139.5619  139.9361  169.2364 C.3     1  UNL1        0.0338
     24 O         141.6324  141.4115  169.7715 O.3     1  UNL1       -0.3553
     25 C         142.7917  142.2413  169.3050 C.3     1  UNL1        0.1349
     26 C         143.7029  142.8869  170.3065 C.3     1  UNL1        0.0339
     27 C         143.0398  142.4254  167.8372 C.3     1  UNL1        0.1205
     28 N         142.1286  141.7798  166.8358 N.pl3   1  UNL1       -0.3019
     29 H         137.3895  138.4053  165.1084 H       1  UNL1        0.1591
     30 H         138.4879  139.1696  169.1983 H       1  UNL1        0.1591
     31 C         141.8367  140.8744  157.9886 C.3     1  UNL1        0.1060
     32 C         142.4439  140.8441  159.3600 C.3     1  UNL1        0.1143
     33 N         142.7486  142.2564  159.7632 N.am    1  UNL1       -0.2317
     34 C         142.3298  143.1595  158.6412 C.2     1  UNL1        0.2812
     35 O         142.4529  144.6542  158.6197 O.2     1  UNL1       -0.2623
     36 S         141.7662  142.3054  157.5445 S.3     1  UNL1       -0.0534
     37 C         141.3802  139.6829  157.2001 C.3     1  UNL1        0.1552
     38 C         139.8312  137.5986  157.1193 C.3     1  UNL1        0.1741
     39 O         140.7081  138.5361  157.8952 O.3     1  UNL1       -0.3501
@<TRIPOS>BOND
     1    38    39    1
     2    39    37    1
     3    31    37    1
     4    31    32    1
     5    32    33    1
     6    33     1    1
     7     1     2   ar
     8     2     3   ar
     9     3     4   ar
    10     4     5   ar
    11     5     6    1
    12     5     7   ar
    13     7     8   ar
    14     8     9   ar
    15     9    10   ar
    16     8    11    1
    17    11    12    1
    18    12    13    1
    19    13    14    2
    20    13    15   am
    21    15    16   am
    22    16    17    2
    23    16    18   am
    24    18    19   am
    25    19    20    2
    26    21    12    1
    27    21    22    1
    28    22    23    1
    29    22    24    1
    30    24    25    1
    31    25    26    1
    32    25    27    1
    33    27    28    1
    34    33    34   am
    35    34    35    2
    36    34    36    1
    37    36    31    1
    38    10     1   ar
    39    19    12    1
    40    28    21    1
    41    10     4   ar
    42    28     7    1
    43    15    29    1
    44    18    30    1
@<TRIPOS>MOLECULE
*****
 39 44 0 0 0
SMALL
GASTEIGER

@<TRIPOS>ATOM
      1 C         143.1460  138.4052  157.4102 C.ar    1  UNL1        0.1801
      2 N         144.2165  139.2756  156.8217 N.ar    1  UNL1       -0.0614
      3 O         144.5308  140.3573  157.8122 O.2     1  UNL1       -0.3498
      4 C         143.6545  140.1555  159.0128 C.ar    1  UNL1        0.2065
      5 C         143.5254  140.9144  160.3001 C.ar    1  UNL1        0.1899
      6 F         144.3813  142.1209  160.5486 F       1  UNL1       -0.1996
      7 C         142.5403  140.4668  161.3391 C.ar    1  UNL1        0.0749
      8 C         141.6844  139.2603  161.0906 C.ar    1  UNL1       -0.0053
      9 C         141.8136  138.5013  159.8032 C.ar    1  UNL1        0.0032
     10 C         142.7986  138.9489  158.7643 C.ar    1  UNL1        0.0744
     11 C         140.6994  138.8127  162.1295 C.3     1  UNL1        0.0468
     12 C         140.5703  139.5716  163.4169 C.3     1  UNL1        0.1606
     13 C         139.7144  138.3651  163.1684 C.2     1  UNL1        0.2387
     14 O         139.8435  137.6061  161.8811 O.2     1  UNL1       -0.2741
     15 N         138.7293  137.9175  164.2074 N.am    1  UNL1       -0.2389
     16 C         138.6002  138.6764  165.4947 C.2     1  UNL1        0.3122
     17 O         137.6151  138.2288  166.5337 O.2     1  UNL1       -0.2520
     18 N         139.4561  139.8829  165.7432 N.am    1  UNL1       -0.2389
     19 C         140.4411  140.3305  164.7043 C.2     1  UNL1        0.2387
     20 O         140.7997  140.9758  165.0051 O.2     1  UNL1       -0.2741
     21 C         141.4262  140.7781  163.6653 C.3     1  UNL1        0.1166
     22 C         141.2970  141.5371  164.9527 C.3     1  UNL1        0.1341
     23 C         140.3119  141.0895  165.9916 C.3     1  UNL1        0.0338
     24 O         142.1529  142.7436  165.2012 O.3     1  UNL1       -0.3553
     25 C         143.1379  143.1912  164.1622 C.3     1  UNL1        0.1349
     26 C         143.9938  144.3977  164.4107 C.3     1  UNL1        0.0339
     27 C         143.2671  142.4323  162.8749 C.3     1  UNL1        0.1205
     28 N         142.4112  141.2257  162.6264 N.pl3   1  UNL1       -0.3019
     29 H         138.1675  137.1256  164.0443 H       1  UNL1        0.1591
     30 H         139.3713  140.3811  166.5881 H       1  UNL1        0.1591
     31 C         142.1102  134.9146  156.0652 C.3     1  UNL1        0.1060
     32 C         143.0206  135.7892  156.8754 C.3     1  UNL1        0.1143
     33 N         142.5307  137.2021  156.7589 N.am    1  UNL1       -0.2317
     34 C         141.3176  137.2009  155.8767 C.2     1  UNL1        0.2812
     35 O         140.5067  138.4023  155.4909 O.2     1  UNL1       -0.2623
     36 S         141.0577  135.7871  155.4480 S.3     1  UNL1       -0.0534
     37 C         142.2311  133.4286  155.9011 C.3     1  UNL1        0.1552
     38 C         143.0595  131.1639  156.8681 C.3     1  UNL1        0.1741
     39 O         142.5817  132.5698  157.0800 O.3     1  UNL1       -0.3501
@<TRIPOS>BOND
     1    38    39    1
     2    39    37    1
     3    31    37    1
     4    31    32    1
     5    32    33    1
     6    33     1    1
     7     1     2   ar
     8     2     3   ar
     9     3     4   ar
    10     4     5   ar
    11     5     6    1
    12     5     7   ar
    13     7     8   ar
    14     8     9   ar
    15     9    10   ar
    16     8    11    1
    17    11    12    1
    18    12    13    1
    19    13    14    2
    20    13    15   am
    21    15    16   am
    22    16    17    2
    23    16    18   am
    24    18    19   am
    25    19    20    2
    26    21    12    1
    27    21    22    1
    28    22    23    1
    29    22    24    1
    30    24    25    1
    31    25    26    1
    32    25    27    1
    33    27    28    1
    34    33    34   am
    35    34    35    2
    36    34    36    1
    37    36    31    1
    38    10     1   ar
    39    19    12    1
    40    28    21    1
    41    10     4   ar
    42    28     7    1
    43    15    29    1
    44    18    30    1
@<TRIPOS>MOLECULE
*****
 39 44 0 0 0
SMALL
GASTEIGER

@<TRIPOS>ATOM
      1 C         141.3461  140.4033  159.9883 C.ar    1  UNL1        0.1801
      2 N         140.2704  139.5913  159.3299 N.ar    1  UNL1       -0.0614
      3 O         139.3701  139.0568  160.4041 O.2     1  UNL1       -0.3498
      4 C         139.8894  139.5385  161.7263 C.ar    1  UNL1        0.2065
      5 C         139.4081  139.3268  163.1311 C.ar    1  UNL1        0.1899
      6 F         138.1869  138.4946  163.3881 F       1  UNL1       -0.1996
      7 C         140.1480  139.9474  164.2790 C.ar    1  UNL1        0.0749
      8 C         141.3692  140.7796  164.0220 C.ar    1  UNL1       -0.0053
      9 C         141.8505  140.9912  162.6171 C.ar    1  UNL1        0.0032
     10 C         141.1107  140.3707  161.4693 C.ar    1  UNL1        0.0744
     11 C         142.1090  141.4002  165.1698 C.3     1  UNL1        0.0468
     12 C         141.6277  141.1885  166.5745 C.3     1  UNL1        0.1606
     13 C         142.8489  142.0207  166.3176 C.2     1  UNL1        0.2387
     14 O         143.3303  142.2324  164.9128 O.2     1  UNL1       -0.2741
     15 N         143.5888  142.6413  167.4654 N.am    1  UNL1       -0.2389
     16 C         143.1074  142.4296  168.8702 C.2     1  UNL1        0.3122
     17 O         143.8473  143.0502  170.0181 O.2     1  UNL1       -0.2520
     18 N         141.8862  141.5974  169.1272 N.am    1  UNL1       -0.2389
     19 C         141.1463  140.9769  167.9794 C.2     1  UNL1        0.2387
     20 O         140.5358  140.5781  168.3015 O.2     1  UNL1       -0.2741
     21 C         140.4065  140.3563  166.8315 C.3     1  UNL1        0.1166
     22 C         139.9251  140.1447  168.2364 C.3     1  UNL1        0.1341
     23 C         140.6650  140.7652  169.3842 C.3     1  UNL1        0.0338
     24 O         138.7039  139.3125  168.4934 O.3     1  UNL1       -0.3553
     25 C         137.9640  138.6919  167.3455 C.3     1  UNL1        0.1349
     26 C         136.7428  137.8597  167.6025 C.3     1  UNL1        0.0339
     27 C         138.4454  138.9035  165.9407 C.3     1  UNL1        0.1205
     28 N         139.6666  139.7357  165.6837 N.pl3   1  UNL1       -0.3019
     29 H         144.3903  143.1875  167.2968 H       1  UNL1        0.1591
     30 H         141.5703  141.4585  170.0492 H       1  UNL1        0.1591
     31 C         144.3829  141.5867  157.8803 C.3     1  UNL1        0.1060
     32 C         143.4488  140.5072  158.3412 C.3     1  UNL1        0.1143
     33 N         142.4614  141.1218  159.2884 N.am    1  UNL1       -0.2317
     34 C         142.7852  142.5812  159.4131 C.2     1  UNL1        0.2812
     35 O         142.0506  143.5781  160.2594 O.2     1  UNL1       -0.2623
     36 S         143.9727  142.8685  158.5429 S.3     1  UNL1       -0.0534
     37 C         145.5262  141.4146  156.9248 C.3     1  UNL1        0.1552
     38 C         147.8528  142.3347  156.2247 C.3     1  UNL1        0.1741
     39 O         146.4241  142.5751  156.6128 O.3     1  UNL1       -0.3501
@<TRIPOS>BOND
     1    38    39    1
     2    39    37    1
     3    31    37    1
     4    31    32    1
     5    32    33    1
     6    33     1    1
     7     1     2   ar
     8     2     3   ar
     9     3     4   ar
    10     4     5   ar
    11     5     6    1
    12     5     7   ar
    13     7     8   ar
    14     8     9   ar
    15     9    10   ar
    16     8    11    1
    17    11    12    1
    18    12    13    1
    19    13    14    2
    20    13    15   am
    21    15    16   am
    22    16    17    2
    23    16    18   am
    24    18    19   am
    25    19    20    2
    26    21    12    1
    27    21    22    1
    28    22    23    1
    29    22    24    1
    30    24    25    1
    31    25    26    1
    32    25    27    1
    33    27    28    1
    34    33    34   am
    35    34    35    2
    36    34    36    1
    37    36    31    1
    38    10     1   ar
    39    19    12    1
    40    28    21    1
    41    10     4   ar
    42    28     7    1
    43    15    29    1
    44    18    30    1
@<TRIPOS>MOLECULE
*****
 39 44 0 0 0
SMALL
GASTEIGER

@<TRIPOS>ATOM
      1 C         140.7313  141.0553  168.4297 C.ar    1  UNL1        0.1801
      2 N         139.8954  139.9232  168.9488 N.ar    1  UNL1       -0.0614
      3 O         139.0779  139.3904  167.8096 O.2     1  UNL1       -0.3498
      4 C         139.4086  140.1932  166.5864 C.ar    1  UNL1        0.2065
      5 C         138.9112  140.1201  165.1732 C.ar    1  UNL1        0.1899
      6 F         137.8893  139.0911  164.7900 F       1  UNL1       -0.1996
      7 C         139.4358  141.0762  164.1431 C.ar    1  UNL1        0.0749
      8 C         140.4576  142.1052  164.5264 C.ar    1  UNL1       -0.0053
      9 C         140.9550  142.1782  165.9397 C.ar    1  UNL1        0.0032
     10 C         140.4305  141.2222  166.9697 C.ar    1  UNL1        0.0744
     11 C         140.9822  143.0612  163.4964 C.3     1  UNL1        0.0468
     12 C         140.4848  142.9881  162.0832 C.3     1  UNL1        0.1606
     13 C         141.5067  144.0172  162.4664 C.2     1  UNL1        0.2387
     14 O         142.0041  144.0902  163.8797 O.2     1  UNL1       -0.2741
     15 N         142.0312  144.9732  161.4364 N.am    1  UNL1       -0.2389
     16 C         141.5339  144.9001  160.0231 C.2     1  UNL1        0.3122
     17 O         142.0584  145.8562  158.9931 O.2     1  UNL1       -0.2520
     18 N         140.5120  143.8711  159.6399 N.am    1  UNL1       -0.2389
     19 C         139.9875  142.9151  160.6699 C.2     1  UNL1        0.2387
     20 O         139.4625  142.4501  160.2908 O.2     1  UNL1       -0.2741
     21 C         139.4629  141.9591  161.6999 C.3     1  UNL1        0.1166
     22 C         138.9656  141.8861  160.2866 C.3     1  UNL1        0.1341
     23 C         139.4901  142.8421  159.2566 C.3     1  UNL1        0.0338
     24 O         137.9437  140.8571  159.9034 O.3     1  UNL1       -0.3553
     25 C         137.4192  139.9011  160.9335 C.3     1  UNL1        0.1349
     26 C         136.3973  138.8721  160.5502 C.3     1  UNL1        0.0339
     27 C         137.9165  139.9741  162.3467 C.3     1  UNL1        0.1205
     28 N         138.9384  141.0031  162.7299 N.pl3   1  UNL1       -0.3019
     29 H         142.7019  145.6486  161.6879 H       1  UNL1        0.1591
     30 H         140.1856  143.8232  158.7123 H       1  UNL1        0.1591
     31 C         143.7584  142.8319  170.0870 C.3     1  UNL1        0.1060
     32 C         143.1921  141.8604  169.0941 C.3     1  UNL1        0.1143
     33 N         141.6983  141.8765  169.2301 N.am    1  UNL1       -0.2317
     34 C         141.3414  142.8578  170.3069 C.2     1  UNL1        0.2812
     35 O         139.9548  143.1903  170.7724 O.2     1  UNL1       -0.2623
     36 S         142.6145  143.4483  170.8365 S.3     1  UNL1       -0.0534
     37 C         145.2129  143.1339  170.2940 C.3     1  UNL1        0.1552
     38 C         147.0729  144.7816  171.0527 C.3     1  UNL1        0.1741
     39 O         145.6249  144.3945  170.9948 O.3     1  UNL1       -0.3501
@<TRIPOS>BOND
     1    38    39    1
     2    39    37    1
     3    31    37    1
     4    31    32    1
     5    32    33    1
     6    33     1    1
     7     1     2   ar
     8     2     3   ar
     9     3     4   ar
    10     4     5   ar
    11     5     6    1
    12     5     7   ar
    13     7     8   ar
    14     8     9   ar
    15     9    10   ar
    16     8    11    1
    17    11    12    1
    18    12    13    1
    19    13    14    2
    20    13    15   am
    21    15    16   am
    22    16    17    2
    23    16    18   am
    24    18    19   am
    25    19    20    2
    26    21    12    1
    27    21    22    1
    28    22    23    1
    29    22    24    1
    30    24    25    1
    31    25    26    1
    32    25    27    1
    33    27    28    1
    34    33    34   am
    35    34    35    2
    36    34    36    1
    37    36    31    1
    38    10     1   ar
    39    19    12    1
    40    28    21    1
    41    10     4   ar
    42    28     7    1
    43    15    29    1
    44    18    30    1
@<TRIPOS>MOLECULE
*****
 39 44 0 0 0
SMALL
GASTEIGER

@<TRIPOS>ATOM
      1 C         138.8992  141.3949  158.0414 C.ar    1  UNL1        0.1801
      2 N         137.6723  140.5463  157.8841 N.ar    1  UNL1       -0.0614
      3 O         137.3244  139.9809  159.2292 O.2     1  UNL1       -0.3498
      4 C         138.3361  140.4801  160.2178 C.ar    1  UNL1        0.2065
      5 C         138.4969  140.2517  161.6915 C.ar    1  UNL1        0.1899
      6 F         137.5236  139.3778  162.4256 F       1  UNL1       -0.1996
      7 C         139.6310  140.8973  162.4312 C.ar    1  UNL1        0.0749
      8 C         140.6043  141.7713  161.6971 C.ar    1  UNL1       -0.0053
      9 C         140.4435  141.9996  160.2233 C.ar    1  UNL1        0.0032
     10 C         139.3094  141.3540  159.4836 C.ar    1  UNL1        0.0744
     11 C         141.7383  142.4168  162.4367 C.3     1  UNL1        0.0468
     12 C         141.8991  142.1885  163.9104 C.3     1  UNL1        0.1606
     13 C         142.8724  143.0624  163.1763 C.2     1  UNL1        0.2387
     14 O         142.7116  143.2908  161.7026 O.2     1  UNL1       -0.2741
     15 N         144.0065  143.7080  163.9160 N.am    1  UNL1       -0.2389
     16 C         144.1673  143.4797  165.3898 C.2     1  UNL1        0.3122
     17 O         145.3014  144.1253  166.1295 O.2     1  UNL1       -0.2520
     18 N         143.1940  142.6058  166.1239 N.am    1  UNL1       -0.2389
     19 C         142.0599  141.9602  165.3843 C.2     1  UNL1        0.2387
     20 O         141.6541  141.5405  165.9272 O.2     1  UNL1       -0.2741
     21 C         140.9258  141.3146  164.6446 C.3     1  UNL1        0.1166
     22 C         141.0866  141.0863  166.1184 C.3     1  UNL1        0.1341
     23 C         142.2206  141.7319  166.8580 C.3     1  UNL1        0.0338
     24 O         140.1133  140.2124  166.8525 O.3     1  UNL1       -0.3553
     25 C         138.9792  139.5668  166.1128 C.3     1  UNL1        0.1349
     26 C         138.0059  138.6928  166.8470 C.3     1  UNL1        0.0339
     27 C         138.8184  139.7951  164.6391 C.3     1  UNL1        0.1205
     28 N         139.7917  140.6690  163.9050 N.pl3   1  UNL1       -0.3019
     29 H         144.6453  144.2816  163.4342 H       1  UNL1        0.1591
     30 H         143.2995  142.4559  167.0912 H       1  UNL1        0.1591
     31 C         140.4695  143.9636  155.5915 C.3     1  UNL1        0.1060
     32 C         139.6892  143.6441  156.8322 C.3     1  UNL1        0.1143
     33 N         139.5938  142.1516  156.9483 N.am    1  UNL1       -0.2317
     34 C         140.3151  141.5487  155.7794 C.2     1  UNL1        0.2812
     35 O         140.4683  140.0833  155.4984 O.2     1  UNL1       -0.2623
     36 S         140.8563  142.6685  154.9409 S.3     1  UNL1       -0.0534
     37 C         140.8041  145.3369  155.0897 C.3     1  UNL1        0.1552
     38 C         138.9056  147.0669  155.4805 C.3     1  UNL1        0.1741
     39 O         140.2746  146.5457  155.8028 O.3     1  UNL1       -0.3501
@<TRIPOS>BOND
     1    38    39    1
     2    39    37    1
     3    31    37    1
     4    31    32    1
     5    32    33    1
     6    33     1    1
     7     1     2   ar
     8     2     3   ar
     9     3     4   ar
    10     4     5   ar
    11     5     6    1
    12     5     7   ar
    13     7     8   ar
    14     8     9   ar
    15     9    10   ar
    16     8    11    1
    17    11    12    1
    18    12    13    1
    19    13    14    2
    20    13    15   am
    21    15    16   am
    22    16    17    2
    23    16    18   am
    24    18    19   am
    25    19    20    2
    26    21    12    1
    27    21    22    1
    28    22    23    1
    29    22    24    1
    30    24    25    1
    31    25    26    1
    32    25    27    1
    33    27    28    1
    34    33    34   am
    35    34    35    2
    36    34    36    1
    37    36    31    1
    38    10     1   ar
    39    19    12    1
    40    28    21    1
    41    10     4   ar
    42    28     7    1
    43    15    29    1
    44    18    30    1
@<TRIPOS>MOLECULE
*****
 39 44 0 0 0
SMALL
GASTEIGER

@<TRIPOS>ATOM
      1 C         142.4484  139.6416  166.3530 C.ar    1  UNL1        0.1801
      2 N         143.4354  138.5231  166.1959 N.ar    1  UNL1       -0.0614
      3 O         144.0084  138.6015  164.8119 O.2     1  UNL1       -0.3498
      4 C         143.3755  139.7684  164.1136 C.ar    1  UNL1        0.2065
      5 C         143.5525  140.3287  162.7335 C.ar    1  UNL1        0.1899
      6 F         144.5166  139.6858  161.7810 F       1  UNL1       -0.1996
      7 C         142.7654  141.5319  162.3058 C.ar    1  UNL1        0.0749
      8 C         141.8013  142.1748  163.2582 C.ar    1  UNL1       -0.0053
      9 C         141.6243  141.6144  164.6384 C.ar    1  UNL1        0.0032
     10 C         142.4114  140.4113  165.0660 C.ar    1  UNL1        0.0744
     11 C         141.0142  143.3779  162.8306 C.3     1  UNL1        0.0468
     12 C         141.1912  143.9382  161.4505 C.3     1  UNL1        0.1606
     13 C         140.2271  144.5810  162.4030 C.2     1  UNL1        0.2387
     14 O         140.0501  144.0208  163.7831 O.2     1  UNL1       -0.2741
     15 N         139.4400  145.7842  161.9753 N.am    1  UNL1       -0.2389
     16 C         139.6170  146.3445  160.5952 C.2     1  UNL1        0.3122
     17 O         138.8299  147.5477  160.1675 O.2     1  UNL1       -0.2520
     18 N         140.5812  145.7016  159.6427 N.am    1  UNL1       -0.2389
     19 C         141.3683  144.4985  160.0703 C.2     1  UNL1        0.2387
     20 O         141.8201  144.2979  159.4450 O.2     1  UNL1       -0.2741
     21 C         142.1554  143.2953  160.4980 C.3     1  UNL1        0.1166
     22 C         142.3324  143.8556  159.1179 C.3     1  UNL1        0.1341
     23 C         141.5453  145.0588  158.6903 C.3     1  UNL1        0.0338
     24 O         143.2965  143.2128  158.1654 O.3     1  UNL1       -0.3553
     25 C         144.0836  142.0096  158.5931 C.3     1  UNL1        0.1349
     26 C         145.0477  141.3667  157.6407 C.3     1  UNL1        0.0339
     27 C         143.9066  141.4493  159.9732 C.3     1  UNL1        0.1205
     28 N         142.9424  142.0922  160.9257 N.pl3   1  UNL1       -0.3019
     29 H         138.8072  146.2062  162.6004 H       1  UNL1        0.1591
     30 H         140.6974  146.0694  158.7369 H       1  UNL1        0.1591
     31 C         141.0267  140.5467  169.8494 C.3     1  UNL1        0.1060
     32 C         142.1846  140.3581  168.9146 C.3     1  UNL1        0.1143
     33 N         141.6403  139.9384  167.5814 N.am    1  UNL1       -0.2317
     34 C         140.1461  139.8677  167.6920 C.2     1  UNL1        0.2812
     35 O         139.1976  139.4877  166.5939 O.2     1  UNL1       -0.2623
     36 S         139.7668  140.2436  169.0938 S.3     1  UNL1       -0.0534
     37 C         141.1134  140.9650  171.2873 C.3     1  UNL1        0.1552
     38 C         139.9992  143.2497  170.7501 C.3     1  UNL1        0.1741
     39 O         140.4201  142.2126  171.7486 O.3     1  UNL1       -0.3501
@<TRIPOS>BOND
     1    38    39    1
     2    39    37    1
     3    31    37    1
     4    31    32    1
     5    32    33    1
     6    33     1    1
     7     1     2   ar
     8     2     3   ar
     9     3     4   ar
    10     4     5   ar
    11     5     6    1
    12     5     7   ar
    13     7     8   ar
    14     8     9   ar
    15     9    10   ar
    16     8    11    1
    17    11    12    1
    18    12    13    1
    19    13    14    2
    20    13    15   am
    21    15    16   am
    22    16    17    2
    23    16    18   am
    24    18    19   am
    25    19    20    2
    26    21    12    1
    27    21    22    1
    28    22    23    1
    29    22    24    1
    30    24    25    1
    31    25    26    1
    32    25    27    1
    33    27    28    1
    34    33    34   am
    35    34    35    2
    36    34    36    1
    37    36    31    1
    38    10     1   ar
    39    19    12    1
    40    28    21    1
    41    10     4   ar
    42    28     7    1
    43    15    29    1
    44    18    30    1
@<TRIPOS>MOLECULE
*****
 39 44 0 0 0
SMALL
GASTEIGER

@<TRIPOS>ATOM
      1 C         143.5451  143.1848  157.8767 C.ar    1  UNL1        0.1801
      2 N         142.7523  144.3508  157.3651 N.ar    1  UNL1       -0.0614
      3 O         141.8465  144.8146  158.4671 O.2     1  UNL1       -0.3498
      4 C         142.0794  143.9352  159.6597 C.ar    1  UNL1        0.2065
      5 C         141.4712  143.9215  161.0308 C.ar    1  UNL1        0.1899
      6 F         140.4214  144.9288  161.3957 F       1  UNL1       -0.1996
      7 C         141.9129  142.9004  162.0370 C.ar    1  UNL1        0.0749
      8 C         142.9627  141.8931  161.6722 C.ar    1  UNL1       -0.0053
      9 C         143.5709  141.9069  160.3010 C.ar    1  UNL1        0.0032
     10 C         143.1293  142.9279  159.2948 C.ar    1  UNL1        0.0744
     11 C         143.4044  140.8721  162.6783 C.3     1  UNL1        0.0468
     12 C         142.7962  140.8584  164.0494 C.3     1  UNL1        0.1606
     13 C         143.8460  139.8511  163.6845 C.2     1  UNL1        0.2387
     14 O         144.4542  139.8648  162.3135 O.2     1  UNL1       -0.2741
     15 N         144.2877  138.8301  164.6908 N.am    1  UNL1       -0.2389
     16 C         143.6795  138.8164  166.0619 C.2     1  UNL1        0.3122
     17 O         144.1211  137.7953  167.0681 O.2     1  UNL1       -0.2520
     18 N         142.6296  139.8237  166.4267 N.am    1  UNL1       -0.2389
     19 C         142.1880  140.8447  165.4206 C.2     1  UNL1        0.2387
     20 O         141.6342  141.2873  165.7852 O.2     1  UNL1       -0.2741
     21 C         141.7463  141.8657  164.4143 C.3     1  UNL1        0.1166
     22 C         141.1381  141.8520  165.7854 C.3     1  UNL1        0.1341
     23 C         141.5798  140.8310  166.7916 C.3     1  UNL1        0.0338
     24 O         140.0883  142.8593  166.1503 O.3     1  UNL1       -0.3553
     25 C         139.6466  143.8804  165.1440 C.3     1  UNL1        0.1349
     26 C         138.5968  144.8877  165.5089 C.3     1  UNL1        0.0339
     27 C         140.2548  143.8941  163.7730 C.3     1  UNL1        0.1205
     28 N         141.3047  142.8868  163.4081 N.pl3   1  UNL1       -0.3019
     29 H         144.9767  138.1689  164.4513 H       1  UNL1        0.1591
     30 H         142.2304  139.8147  167.3266 H       1  UNL1        0.1591
     31 C         146.6760  141.7285  156.1039 C.3     1  UNL1        0.1060
     32 C         146.0198  142.7777  156.9517 C.3     1  UNL1        0.1143
     33 N         144.5733  142.4113  157.1056 N.am    1  UNL1       -0.2317
     34 C         144.3356  141.1358  156.3529 C.2     1  UNL1        0.2812
     35 O         143.0280  140.4098  156.2392 O.2     1  UNL1       -0.2623
     36 S         145.6351  140.7138  155.7339 S.3     1  UNL1       -0.0534
     37 C         148.1195  141.6992  155.6976 C.3     1  UNL1        0.1552
     38 C         147.8029  143.3530  153.7191 C.3     1  UNL1        0.1741
     39 O         148.5277  142.1974  154.3429 O.3     1  UNL1       -0.3501
@<TRIPOS>BOND
     1    38    39    1
     2    39    37    1
     3    31    37    1
     4    31    32    1
     5    32    33    1
     6    33     1    1
     7     1     2   ar
     8     2     3   ar
     9     3     4   ar
    10     4     5   ar
    11     5     6    1
    12     5     7   ar
    13     7     8   ar
    14     8     9   ar
    15     9    10   ar
    16     8    11    1
    17    11    12    1
    18    12    13    1
    19    13    14    2
    20    13    15   am
    21    15    16   am
    22    16    17    2
    23    16    18   am
    24    18    19   am
    25    19    20    2
    26    21    12    1
    27    21    22    1
    28    22    23    1
    29    22    24    1
    30    24    25    1
    31    25    26    1
    32    25    27    1
    33    27    28    1
    34    33    34   am
    35    34    35    2
    36    34    36    1
    37    36    31    1
    38    10     1   ar
    39    19    12    1
    40    28    21    1
    41    10     4   ar
    42    28     7    1
    43    15    29    1
    44    18    30    1
