@<TRIPOS>MOLECULE
*****
 26 29 0 0 0
SMALL
GASTEIGER

@<TRIPOS>ATOM
      1 C         141.2016  141.4813  165.1381 C.2     1  UNL1        0.0783
      2 N         142.0227  140.4155  164.4749 N.2     1  UNL1       -0.2444
      3 C         142.1541  140.1106  163.0121 C.ar    1  UNL1        0.0954
      4 C         143.0822  138.9566  162.7740 C.ar    1  UNL1        0.0317
      5 C         143.3530  138.4882  161.3750 C.ar    1  UNL1        0.0593
      6 CL        144.2811  137.3341  161.1369 Cl      1  UNL1       -0.0822
      7 C         142.6957  139.1740  160.2141 C.ar    1  UNL1        0.0128
      8 C         141.7676  140.3281  160.4521 C.ar    1  UNL1        0.0170
      9 C         141.4968  140.7964  161.8512 C.ar    1  UNL1        0.0662
     10 N         140.5458  141.9563  161.8664 N.pl3   1  UNL1       -0.3113
     11 C         140.0172  142.7170  163.0462 C.ar    1  UNL1        0.0498
     12 C         139.0842  143.8112  162.6195 C.ar    1  UNL1        0.0155
     13 C         138.4431  144.6941  163.6488 C.ar    1  UNL1        0.0127
     14 C         138.7349  144.4827  165.1048 C.ar    1  UNL1        0.0578
     15 CL        138.0937  145.3655  166.1341 Cl      1  UNL1       -0.0822
     16 C         139.6679  143.3884  165.5316 C.ar    1  UNL1        0.0141
     17 C         140.3091  142.5056  164.5022 C.ar    1  UNL1        0.0316
     18 H         140.2264  142.2583  160.9855 H       1  UNL1        0.1523
     19 C         139.1410  140.4423  169.7937 C.3     1  UNL1        0.0222
     20 C         140.2536  141.0097  168.9629 C.3     1  UNL1        0.0796
     21 C         140.1712  140.9618  167.4659 C.2     1  UNL1       -0.0132
     22 C         141.2839  141.5292  166.6351 C.2     1  UNL1       -0.0061
     23 C         142.4787  142.1445  167.3012 C.3     1  UNL1        0.0449
     24 C         142.5610  142.1924  168.7982 C.3     1  UNL1        0.0771
     25 N         141.4484  141.6250  169.6290 N.3     1  UNL1       -0.2688
     26 C         141.5307  141.6729  171.1260 C.3     1  UNL1        0.0899
@<TRIPOS>BOND
     1    20    19    1
     2    20    21    1
     3    21    22    2
     4    22     1    1
     5     1     2    2
     6     2     3    1
     7     3     4   ar
     8     4     5   ar
     9     5     6    1
    10     5     7   ar
    11     7     8   ar
    12     8     9   ar
    13     9    10    1
    14    10    11    1
    15    11    12   ar
    16    12    13   ar
    17    13    14   ar
    18    14    15    1
    19    14    16   ar
    20    16    17   ar
    21    22    23    1
    22    23    24    1
    23    24    25    1
    24    25    26    1
    25    25    20    1
    26    17     1    1
    27     9     3   ar
    28    17    11   ar
    29    10    18    1
@<TRIPOS>MOLECULE
*****
 26 29 0 0 0
SMALL
GASTEIGER

@<TRIPOS>ATOM
      1 C         141.2408  141.8216  165.1698 C.2     1  UNL1        0.0783
      2 N         140.5937  142.9781  164.4672 N.2     1  UNL1       -0.2444
      3 C         140.9597  143.5961  163.1503 C.ar    1  UNL1        0.0954
      4 C         140.0512  144.7402  162.8104 C.ar    1  UNL1        0.0317
      5 C         140.2463  145.4982  161.5309 C.ar    1  UNL1        0.0593
      6 CL        139.3377  146.6423  161.1908 Cl      1  UNL1       -0.0822
      7 C         141.3500  145.1122  160.5913 C.ar    1  UNL1        0.0128
      8 C         142.2586  143.9681  160.9312 C.ar    1  UNL1        0.0170
      9 C         142.0634  143.2101  162.2108 C.ar    1  UNL1        0.0662
     10 N         143.0736  142.1108  162.3560 N.pl3   1  UNL1       -0.3113
     11 C         143.2297  141.1260  163.4767 C.ar    1  UNL1        0.0498
     12 C         144.3736  140.1884  163.2271 C.ar    1  UNL1        0.0155
     13 C         144.7018  139.1221  164.2297 C.ar    1  UNL1        0.0127
     14 C         143.8862  138.9934  165.4819 C.ar    1  UNL1        0.0578
     15 CL        144.2145  137.9272  166.4846 Cl      1  UNL1       -0.0822
     16 C         142.7422  139.9310  165.7315 C.ar    1  UNL1        0.0141
     17 C         142.4139  140.9973  164.7289 C.ar    1  UNL1        0.0316
     18 H         143.7197  142.0242  161.6182 H       1  UNL1        0.1523
     19 C         140.4584  142.7906  170.2144 C.3     1  UNL1        0.0222
     20 C         140.2435  141.9232  169.0097 C.3     1  UNL1        0.0796
     21 C         140.8496  142.3061  167.6921 C.2     1  UNL1       -0.0132
     22 C         140.6347  141.4387  166.4873 C.2     1  UNL1       -0.0061
     23 C         139.8138  140.1884  166.6002 C.3     1  UNL1        0.0449
     24 C         139.2076  139.8054  167.9177 C.3     1  UNL1        0.0771
     25 N         139.4225  140.6729  169.1225 N.3     1  UNL1       -0.2688
     26 C         138.8165  140.2900  170.4401 C.3     1  UNL1        0.0899
@<TRIPOS>BOND
     1    20    19    1
     2    20    21    1
     3    21    22    2
     4    22     1    1
     5     1     2    2
     6     2     3    1
     7     3     4   ar
     8     4     5   ar
     9     5     6    1
    10     5     7   ar
    11     7     8   ar
    12     8     9   ar
    13     9    10    1
    14    10    11    1
    15    11    12   ar
    16    12    13   ar
    17    13    14   ar
    18    14    15    1
    19    14    16   ar
    20    16    17   ar
    21    22    23    1
    22    23    24    1
    23    24    25    1
    24    25    26    1
    25    25    20    1
    26    17     1    1
    27     9     3   ar
    28    17    11   ar
    29    10    18    1
@<TRIPOS>MOLECULE
*****
 26 29 0 0 0
SMALL
GASTEIGER

@<TRIPOS>ATOM
      1 C         140.2457  141.6587  164.0557 C.2     1  UNL1        0.0783
      2 N         140.4313  142.4106  165.3403 N.2     1  UNL1       -0.2444
      3 C         140.1933  141.9376  166.7438 C.ar    1  UNL1        0.0954
      4 C         140.5041  143.0112  167.7441 C.ar    1  UNL1        0.0317
      5 C         140.3325  142.7430  169.2098 C.ar    1  UNL1        0.0593
      6 CL        140.6432  143.8167  170.2102 Cl      1  UNL1       -0.0822
      7 C         139.8500  141.4011  169.6753 C.ar    1  UNL1        0.0128
      8 C         139.5392  140.3275  168.6750 C.ar    1  UNL1        0.0170
      9 C         139.7109  140.5957  167.2092 C.ar    1  UNL1        0.0662
     10 N         139.3473  139.3955  166.3862 N.pl3   1  UNL1       -0.3113
     11 C         139.3763  139.2406  164.8945 C.ar    1  UNL1        0.0498
     12 C         138.9325  137.8700  164.4770 C.ar    1  UNL1        0.0155
     13 C         138.8885  137.5066  163.0224 C.ar    1  UNL1        0.0127
     14 C         139.2883  138.5137  161.9852 C.ar    1  UNL1        0.0578
     15 CL        139.2442  138.1503  160.5306 Cl      1  UNL1       -0.0822
     16 C         139.7322  139.8844  162.4027 C.ar    1  UNL1        0.0141
     17 C         139.7762  140.2479  163.8574 C.ar    1  UNL1        0.0316
     18 H         139.0503  138.6048  166.8920 H       1  UNL1        0.1523
     19 C         143.6177  142.9188  160.3086 C.3     1  UNL1        0.0222
     20 C         142.2588  143.0479  160.9305 C.3     1  UNL1        0.0796
     21 C         141.9318  142.2887  162.1822 C.2     1  UNL1       -0.0132
     22 C         140.5728  142.4178  162.8041 C.2     1  UNL1       -0.0061
     23 C         139.5411  143.3060  162.1744 C.3     1  UNL1        0.0449
     24 C         139.8681  144.0652  160.9227 C.3     1  UNL1        0.0771
     25 N         141.2271  143.9361  160.3007 N.3     1  UNL1       -0.2688
     26 C         141.5542  144.6953  159.0491 C.3     1  UNL1        0.0899
@<TRIPOS>BOND
     1    20    19    1
     2    20    21    1
     3    21    22    2
     4    22     1    1
     5     1     2    2
     6     2     3    1
     7     3     4   ar
     8     4     5   ar
     9     5     6    1
    10     5     7   ar
    11     7     8   ar
    12     8     9   ar
    13     9    10    1
    14    10    11    1
    15    11    12   ar
    16    12    13   ar
    17    13    14   ar
    18    14    15    1
    19    14    16   ar
    20    16    17   ar
    21    22    23    1
    22    23    24    1
    23    24    25    1
    24    25    26    1
    25    25    20    1
    26    17     1    1
    27     9     3   ar
    28    17    11   ar
    29    10    18    1
@<TRIPOS>MOLECULE
*****
 26 29 0 0 0
SMALL
GASTEIGER

@<TRIPOS>ATOM
      1 C         141.3071  141.7538  164.5892 C.2     1  UNL1        0.0783
      2 N         142.1305  142.2412  165.7444 N.2     1  UNL1       -0.2444
      3 C         142.3277  141.6033  167.0876 C.ar    1  UNL1        0.0954
      4 C         143.2338  142.4242  167.9565 C.ar    1  UNL1        0.0317
      5 C         143.5622  141.9622  169.3453 C.ar    1  UNL1        0.0593
      6 CL        144.4683  142.7831  170.2142 Cl      1  UNL1       -0.0822
      7 C         142.9845  140.6792  169.8651 C.ar    1  UNL1        0.0128
      8 C         142.0784  139.8583  168.9962 C.ar    1  UNL1        0.0170
      9 C         141.7500  140.3203  167.6075 C.ar    1  UNL1        0.0662
     10 N         140.8325  139.3584  166.9124 N.pl3   1  UNL1       -0.3113
     11 C         140.2661  139.4419  165.5260 C.ar    1  UNL1        0.0498
     12 C         139.3873  138.2651  165.2212 C.ar    1  UNL1        0.0155
     13 C         138.7197  138.1544  163.8825 C.ar    1  UNL1        0.0127
     14 C         138.9309  139.2204  162.8487 C.ar    1  UNL1        0.0578
     15 CL        138.2633  139.1096  161.5100 Cl      1  UNL1       -0.0822
     16 C         139.8098  140.3972  163.1534 C.ar    1  UNL1        0.0141
     17 C         140.4774  140.5079  164.4921 C.ar    1  UNL1        0.0316
     18 H         140.5669  138.5678  167.4355 H       1  UNL1        0.1523
     19 C         139.5503  145.9196  162.0283 C.3     1  UNL1        0.0222
     20 C         140.4360  144.7106  162.0896 C.3     1  UNL1        0.0796
     21 C         140.4287  143.8367  163.3088 C.2     1  UNL1       -0.0132
     22 C         141.3144  142.6276  163.3702 C.2     1  UNL1       -0.0061
     23 C         142.2073  142.2925  162.2124 C.3     1  UNL1        0.0449
     24 C         142.2146  143.1663  160.9933 C.3     1  UNL1        0.0771
     25 N         141.3289  144.3754  160.9319 N.3     1  UNL1       -0.2688
     26 C         141.3362  145.2493  159.7128 C.3     1  UNL1        0.0899
@<TRIPOS>BOND
     1    20    19    1
     2    20    21    1
     3    21    22    2
     4    22     1    1
     5     1     2    2
     6     2     3    1
     7     3     4   ar
     8     4     5   ar
     9     5     6    1
    10     5     7   ar
    11     7     8   ar
    12     8     9   ar
    13     9    10    1
    14    10    11    1
    15    11    12   ar
    16    12    13   ar
    17    13    14   ar
    18    14    15    1
    19    14    16   ar
    20    16    17   ar
    21    22    23    1
    22    23    24    1
    23    24    25    1
    24    25    26    1
    25    25    20    1
    26    17     1    1
    27     9     3   ar
    28    17    11   ar
    29    10    18    1
@<TRIPOS>MOLECULE
*****
 26 29 0 0 0
SMALL
GASTEIGER

@<TRIPOS>ATOM
      1 C         140.7196  142.1719  162.2039 C.2     1  UNL1        0.0783
      2 N         140.0821  142.3617  160.8595 N.2     1  UNL1       -0.2444
      3 C         140.3692  143.4123  159.8281 C.ar    1  UNL1        0.0954
      4 C         139.5018  143.2421  158.6162 C.ar    1  UNL1        0.0317
      5 C         139.6302  144.1923  157.4627 C.ar    1  UNL1        0.0593
      6 CL        138.7628  144.0222  156.2508 Cl      1  UNL1       -0.0822
      7 C         140.6259  145.3126  157.5210 C.ar    1  UNL1        0.0128
      8 C         141.4933  145.4828  158.7329 C.ar    1  UNL1        0.0170
      9 C         141.3649  144.5326  159.8864 C.ar    1  UNL1        0.0662
     10 N         142.3194  144.8790  160.9906 N.pl3   1  UNL1       -0.3113
     11 C         142.5139  144.1907  162.3090 C.ar    1  UNL1        0.0498
     12 C         143.5769  144.8626  163.1266 C.ar    1  UNL1        0.0155
     13 C         143.9280  144.3298  164.4841 C.ar    1  UNL1        0.0127
     14 C         143.2161  143.1251  165.0241 C.ar    1  UNL1        0.0578
     15 CL        143.5672  142.5922  166.3816 Cl      1  UNL1       -0.0822
     16 C         142.1530  142.4531  164.2065 C.ar    1  UNL1        0.0141
     17 C         141.8019  142.9859  162.8490 C.ar    1  UNL1        0.0316
     18 H         142.8942  145.6616  160.8284 H       1  UNL1        0.1523
     19 C         141.0515  137.1888  163.6384 C.3     1  UNL1        0.0222
     20 C         140.3731  138.5236  163.7271 C.3     1  UNL1        0.0796
     21 C         140.8856  139.6803  162.9212 C.2     1  UNL1       -0.0132
     22 C         140.2072  141.0152  163.0098 C.2     1  UNL1       -0.0061
     23 C         139.0163  141.1934  163.9043 C.3     1  UNL1        0.0449
     24 C         138.5038  140.0367  164.7102 C.3     1  UNL1        0.0771
     25 N         139.1823  138.7018  164.6216 N.3     1  UNL1       -0.2688
     26 C         138.6699  137.5451  165.4274 C.3     1  UNL1        0.0899
@<TRIPOS>BOND
     1    20    19    1
     2    20    21    1
     3    21    22    2
     4    22     1    1
     5     1     2    2
     6     2     3    1
     7     3     4   ar
     8     4     5   ar
     9     5     6    1
    10     5     7   ar
    11     7     8   ar
    12     8     9   ar
    13     9    10    1
    14    10    11    1
    15    11    12   ar
    16    12    13   ar
    17    13    14   ar
    18    14    15    1
    19    14    16   ar
    20    16    17   ar
    21    22    23    1
    22    23    24    1
    23    24    25    1
    24    25    26    1
    25    25    20    1
    26    17     1    1
    27     9     3   ar
    28    17    11   ar
    29    10    18    1
@<TRIPOS>MOLECULE
*****
 26 29 0 0 0
SMALL
GASTEIGER

@<TRIPOS>ATOM
      1 C         141.9106  142.0887  165.4941 C.2     1  UNL1        0.0783
      2 N         141.2394  143.2724  164.8629 N.2     1  UNL1       -0.2444
      3 C         141.2433  143.6920  163.4227 C.ar    1  UNL1        0.0954
      4 C         140.4426  144.9431  163.2143 C.ar    1  UNL1        0.0317
      5 C         140.3181  145.5337  161.8411 C.ar    1  UNL1        0.0593
      6 CL        139.5174  146.7849  161.6325 Cl      1  UNL1       -0.0822
      7 C         140.9943  144.8732  160.6764 C.ar    1  UNL1        0.0128
      8 C         141.7949  143.6220  160.8849 C.ar    1  UNL1        0.0170
      9 C         141.9194  143.0314  162.2581 C.ar    1  UNL1        0.0662
     10 N         142.7587  141.7882  162.2459 N.pl3   1  UNL1       -0.3113
     11 C         143.1290  140.8984  163.3953 C.ar    1  UNL1        0.0498
     12 C         143.9886  139.7537  162.9475 C.ar    1  UNL1        0.0155
     13 C         144.4707  138.7427  163.9452 C.ar    1  UNL1        0.0127
     14 C         144.0933  138.8764  165.3907 C.ar    1  UNL1        0.0578
     15 CL        144.5754  137.8654  166.3884 Cl      1  UNL1       -0.0822
     16 C         143.2337  140.0212  165.8386 C.ar    1  UNL1        0.0141
     17 C         142.7516  141.0322  164.8409 C.ar    1  UNL1        0.0316
     18 H         143.1133  141.5208  161.3673 H       1  UNL1        0.1523
     19 C         139.0837  140.4018  169.5143 C.3     1  UNL1        0.0222
     20 C         140.3015  141.0987  168.9841 C.3     1  UNL1        0.0796
     21 C         140.4971  141.2452  167.5042 C.2     1  UNL1       -0.0132
     22 C         141.7150  141.9422  166.9740 C.2     1  UNL1       -0.0061
     23 C         142.7372  142.4925  167.9237 C.3     1  UNL1        0.0449
     24 C         142.5417  142.3460  169.4037 C.3     1  UNL1        0.0771
     25 N         141.3238  141.6491  169.9339 N.3     1  UNL1       -0.2688
     26 C         141.1282  141.5025  171.4138 C.3     1  UNL1        0.0899
@<TRIPOS>BOND
     1    20    19    1
     2    20    21    1
     3    21    22    2
     4    22     1    1
     5     1     2    2
     6     2     3    1
     7     3     4   ar
     8     4     5   ar
     9     5     6    1
    10     5     7   ar
    11     7     8   ar
    12     8     9   ar
    13     9    10    1
    14    10    11    1
    15    11    12   ar
    16    12    13   ar
    17    13    14   ar
    18    14    15    1
    19    14    16   ar
    20    16    17   ar
    21    22    23    1
    22    23    24    1
    23    24    25    1
    24    25    26    1
    25    25    20    1
    26    17     1    1
    27     9     3   ar
    28    17    11   ar
    29    10    18    1
@<TRIPOS>MOLECULE
*****
 26 29 0 0 0
SMALL
GASTEIGER

@<TRIPOS>ATOM
      1 C         141.7436  141.9767  165.1876 C.2     1  UNL1        0.0783
      2 N         141.3684  142.0092  166.6395 N.2     1  UNL1       -0.2444
      3 C         141.7384  141.0402  167.7231 C.ar    1  UNL1        0.0954
      4 C         141.1521  141.4443  169.0433 C.ar    1  UNL1        0.0317
      5 C         141.4026  140.6075  170.2627 C.ar    1  UNL1        0.0593
      6 CL        140.8163  141.0115  171.5830 Cl      1  UNL1       -0.0822
      7 C         142.2394  139.3667  170.1620 C.ar    1  UNL1        0.0128
      8 C         142.8257  138.9626  168.8418 C.ar    1  UNL1        0.0170
      9 C         142.5752  139.7994  167.6224 C.ar    1  UNL1        0.0662
     10 N         143.2485  139.2211  166.4131 N.pl3   1  UNL1       -0.3113
     11 C         143.2514  139.7407  165.0060 C.ar    1  UNL1        0.0498
     12 C         144.0520  138.8563  164.0968 C.ar    1  UNL1        0.0155
     13 C         144.1828  139.1982  162.6421 C.ar    1  UNL1        0.0127
     14 C         143.5131  140.4245  162.0967 C.ar    1  UNL1        0.0578
     15 CL        143.6439  140.7664  160.6421 Cl      1  UNL1       -0.0822
     16 C         142.7125  141.3090  163.0060 C.ar    1  UNL1        0.0141
     17 C         142.5816  140.9671  164.4606 C.ar    1  UNL1        0.0316
     18 H         143.7557  138.3907  166.5628 H       1  UNL1        0.1523
     19 C         137.7671  144.3103  162.7914 C.3     1  UNL1        0.0222
     20 C         139.2220  144.2694  163.1541 C.3     1  UNL1        0.0796
     21 C         139.7553  143.1435  163.9895 C.2     1  UNL1       -0.0132
     22 C         141.2103  143.1026  164.3522 C.2     1  UNL1       -0.0061
     23 C         142.1318  144.1875  163.8794 C.3     1  UNL1        0.0449
     24 C         141.5986  145.3135  163.0440 C.3     1  UNL1        0.0771
     25 N         140.1436  145.3543  162.6813 N.3     1  UNL1       -0.2688
     26 C         139.6103  146.4802  161.8459 C.3     1  UNL1        0.0899
@<TRIPOS>BOND
     1    20    19    1
     2    20    21    1
     3    21    22    2
     4    22     1    1
     5     1     2    2
     6     2     3    1
     7     3     4   ar
     8     4     5   ar
     9     5     6    1
    10     5     7   ar
    11     7     8   ar
    12     8     9   ar
    13     9    10    1
    14    10    11    1
    15    11    12   ar
    16    12    13   ar
    17    13    14   ar
    18    14    15    1
    19    14    16   ar
    20    16    17   ar
    21    22    23    1
    22    23    24    1
    23    24    25    1
    24    25    26    1
    25    25    20    1
    26    17     1    1
    27     9     3   ar
    28    17    11   ar
    29    10    18    1
@<TRIPOS>MOLECULE
*****
 26 29 0 0 0
SMALL
GASTEIGER

@<TRIPOS>ATOM
      1 C         141.7337  141.2668  164.6426 C.2     1  UNL1        0.0783
      2 N         142.1949  140.3619  165.7464 N.2     1  UNL1       -0.2444
      3 C         141.8620  140.4242  167.2077 C.ar    1  UNL1        0.0954
      4 C         142.5367  139.3232  167.9709 C.ar    1  UNL1        0.0317
      5 C         142.3350  139.2049  169.4525 C.ar    1  UNL1        0.0593
      6 CL        143.0097  138.1039  170.2158 Cl      1  UNL1       -0.0822
      7 C         141.4585  140.1876  170.1709 C.ar    1  UNL1        0.0128
      8 C         140.7838  141.2886  169.4077 C.ar    1  UNL1        0.0170
      9 C         140.9855  141.4069  167.9261 C.ar    1  UNL1        0.0662
     10 N         140.2256  142.5700  167.3606 N.pl3   1  UNL1       -0.3113
     11 C         140.1543  143.0377  165.9372 C.ar    1  UNL1        0.0498
     12 C         139.2764  144.2462  165.8006 C.ar    1  UNL1        0.0155
     13 C         139.0696  144.8747  164.4545 C.ar    1  UNL1        0.0127
     14 C         139.7407  144.2948  163.2449 C.ar    1  UNL1        0.0578
     15 CL        139.5339  144.9233  161.8988 Cl      1  UNL1       -0.0822
     16 C         140.6187  143.0862  163.3814 C.ar    1  UNL1        0.0141
     17 C         140.8255  142.4577  164.7276 C.ar    1  UNL1        0.0316
     18 H         139.7047  143.0960  168.0096 H       1  UNL1        0.1523
     19 C         141.1989  138.7796  160.1120 C.3     1  UNL1        0.0222
     20 C         141.9813  139.6938  161.0075 C.3     1  UNL1        0.0796
     21 C         141.4662  140.0232  162.3773 C.2     1  UNL1       -0.0132
     22 C         142.2486  140.9375  163.2729 C.2     1  UNL1       -0.0061
     23 C         143.5460  141.5223  162.7987 C.3     1  UNL1        0.0449
     24 C         144.0610  141.1930  161.4289 C.3     1  UNL1        0.0771
     25 N         143.2786  140.2787  160.5333 N.3     1  UNL1       -0.2688
     26 C         143.7935  139.9493  159.1636 C.3     1  UNL1        0.0899
@<TRIPOS>BOND
     1    20    19    1
     2    20    21    1
     3    21    22    2
     4    22     1    1
     5     1     2    2
     6     2     3    1
     7     3     4   ar
     8     4     5   ar
     9     5     6    1
    10     5     7   ar
    11     7     8   ar
    12     8     9   ar
    13     9    10    1
    14    10    11    1
    15    11    12   ar
    16    12    13   ar
    17    13    14   ar
    18    14    15    1
    19    14    16   ar
    20    16    17   ar
    21    22    23    1
    22    23    24    1
    23    24    25    1
    24    25    26    1
    25    25    20    1
    26    17     1    1
    27     9     3   ar
    28    17    11   ar
    29    10    18    1
@<TRIPOS>MOLECULE
*****
 26 29 0 0 0
SMALL
GASTEIGER

@<TRIPOS>ATOM
      1 C         140.8908  141.2939  164.9184 C.2     1  UNL1        0.0783
      2 N         140.4687  140.8055  166.2723 N.2     1  UNL1       -0.2444
      3 C         141.1569  140.9953  167.5916 C.ar    1  UNL1        0.0954
      4 C         140.3948  140.3422  168.7062 C.ar    1  UNL1        0.0317
      5 C         140.9131  140.4143  170.1120 C.ar    1  UNL1        0.0593
      6 CL        140.1509  139.7611  171.2268 Cl      1  UNL1       -0.0822
      7 C         142.1934  141.1394  170.4031 C.ar    1  UNL1        0.0128
      8 C         142.9556  141.7926  169.2884 C.ar    1  UNL1        0.0170
      9 C         142.4373  141.7205  167.8826 C.ar    1  UNL1        0.0662
     10 N         143.3457  142.4350  166.9263 N.pl3   1  UNL1       -0.3113
     11 C         143.1981  142.6007  165.4429 C.ar    1  UNL1        0.0498
     12 C         144.3352  143.3889  164.8636 C.ar    1  UNL1        0.0155
     13 C         144.3800  143.6692  163.3907 C.ar    1  UNL1        0.0127
     14 C         143.2875  143.1614  162.4971 C.ar    1  UNL1        0.0578
     15 CL        143.3322  143.4418  161.0242 Cl      1  UNL1       -0.0822
     16 C         142.1502  142.3732  163.0764 C.ar    1  UNL1        0.0141
     17 C         142.1055  142.0929  164.5492 C.ar    1  UNL1        0.0316
     18 H         144.1444  142.8500  167.3251 H       1  UNL1        0.1523
     19 C         139.4989  138.0350  161.1183 C.3     1  UNL1        0.0222
     20 C         139.2816  139.3066  161.8834 C.3     1  UNL1        0.0796
     21 C         140.1949  139.6644  163.0183 C.2     1  UNL1       -0.0132
     22 C         139.9776  140.9362  163.7835 C.2     1  UNL1       -0.0061
     23 C         138.8471  141.8501  163.4139 C.3     1  UNL1        0.0449
     24 C         137.9338  141.4923  162.2790 C.3     1  UNL1        0.0771
     25 N         138.1511  140.2206  161.5138 N.3     1  UNL1       -0.2688
     26 C         137.2378  139.8628  160.3789 C.3     1  UNL1        0.0899
@<TRIPOS>BOND
     1    20    19    1
     2    20    21    1
     3    21    22    2
     4    22     1    1
     5     1     2    2
     6     2     3    1
     7     3     4   ar
     8     4     5   ar
     9     5     6    1
    10     5     7   ar
    11     7     8   ar
    12     8     9   ar
    13     9    10    1
    14    10    11    1
    15    11    12   ar
    16    12    13   ar
    17    13    14   ar
    18    14    15    1
    19    14    16   ar
    20    16    17   ar
    21    22    23    1
    22    23    24    1
    23    24    25    1
    24    25    26    1
    25    25    20    1
    26    17     1    1
    27     9     3   ar
    28    17    11   ar
    29    10    18    1
