@<TRIPOS>MOLECULE
*****
 39 44 0 0 0
SMALL
GASTEIGER

@<TRIPOS>ATOM
      1 C         142.8082  135.4920  157.7245 C.ar    1  UNL1        0.2400
      2 N         142.2000  134.9199  156.4784 N.ar    1  UNL1       -0.2090
      3 C         141.4100  135.8010  155.5566 C.ar    1  UNL1        0.1042
      4 C         141.0341  137.2971  155.5798 C.ar    1  UNL1        0.0463
      5 C         141.8602  136.8820  156.7610 C.ar    1  UNL1        0.0242
      6 C         142.6265  136.9451  158.0489 C.ar    1  UNL1        0.1179
      7 N         143.2500  137.4799  159.3041 N.pl3   1  UNL1       -0.2104
      8 S         143.6630  138.4281  160.3904 S.O2    1  UNL1        0.0737
      9 O         144.1536  137.0257  160.5961 O.2     1  UNL1       -0.1499
     10 O         144.4702  138.2497  161.6420 O.2     1  UNL1       -0.1499
     11 C         143.7612  140.0394  161.2432 C.ar    1  UNL1        0.1253
     12 C         144.5506  139.9816  162.5173 C.ar    1  UNL1        0.0202
     13 C         144.7308  141.2196  163.3447 C.ar    1  UNL1        0.0015
     14 C         144.1215  142.5155  162.8981 C.ar    1  UNL1        0.0046
     15 C         143.3320  142.5733  161.6240 C.ar    1  UNL1        0.0547
     16 C         143.1519  141.3353  160.7966 C.ar    1  UNL1        0.0247
     17 C         142.7384  143.8874  161.2110 C.2     1  UNL1        0.2461
     18 O         143.2091  144.7404  162.3515 O.2     1  UNL1       -0.2701
     19 N         141.9897  144.9208  160.4226 N.am    1  UNL1       -0.2969
     20 C         141.1672  145.5614  159.3441 C.3     1  UNL1        0.1166
     21 C         140.3599  145.7398  158.0924 C.ar    1  UNL1       -0.0029
     22 C         139.6659  146.9741  157.4799 C.ar    1  UNL1       -0.0026
     23 C         138.8539  147.1926  156.2378 C.ar    1  UNL1       -0.0006
     24 C         138.5860  146.0479  155.3060 C.ar    1  UNL1       -0.0039
     25 C         139.1301  144.6850  155.6164 C.ar    1  UNL1       -0.0164
     26 C         139.6554  145.4368  156.8033 C.ar    1  UNL1       -0.0065
     27 C         138.8407  143.5661  154.6603 C.3     1  UNL1        0.0738
     28 C         138.8187  142.2011  154.0386 C.ar    1  UNL1        0.0861
     29 C         137.9913  142.7081  152.8948 C.ar    1  UNL1        0.1161
     30 N         137.7277  141.5586  151.9680 N.ar    1  UNL1       -0.2181
     31 C         138.3922  140.3411  152.5390 C.ar    1  UNL1        0.1966
     32 S         138.8596  138.9249  152.7004 S.2     1  UNL1       -0.0278
     33 C         140.2376  138.1457  154.6335 C.ar    1  UNL1        0.1350
     34 N         139.5572  139.3357  154.0244 N.ar    1  UNL1       -0.1569
     35 N         139.0665  140.7382  153.8187 N.ar    1  UNL1       -0.2085
     36 H         143.6695  136.6553  159.6406 H       1  UNL1        0.1739
     37 H         142.1370  145.7039  161.0008 H       1  UNL1        0.1501
     38 C         144.4230  133.4894  158.0878 C.3     1  UNL1        0.2543
     39 O         143.5982  134.6108  158.6462 O.3     1  UNL1       -0.4553
@<TRIPOS>BOND
     1    38    39    1
     2    39     1    1
     3     1     2   ar
     4     2     3   ar
     5     3     4   ar
     6     4     5   ar
     7     5     6   ar
     8     6     7    1
     9     7     8    1
    10     8     9    2
    11     8    10    2
    12     8    11    1
    13    11    12   ar
    14    12    13   ar
    15    13    14   ar
    16    14    15   ar
    17    15    16   ar
    18    15    17    1
    19    17    18    2
    20    17    19   am
    21    19    20    1
    22    20    21    1
    23    21    22   ar
    24    22    23   ar
    25    23    24   ar
    26    24    25   ar
    27    25    26   ar
    28    25    27    1
    29    27    28    1
    30    28    29   ar
    31    29    30   ar
    32    30    31   ar
    33    31    32   ar
    34    32    33   ar
    35    33    34   ar
    36    34    35   ar
    37     6     1   ar
    38    16    11   ar
    39    26    21   ar
    40    35    28   ar
    41    33     4    1
    42    35    31   ar
    43     7    36    1
    44    19    37    1
@<TRIPOS>MOLECULE
*****
 39 44 0 0 0
SMALL
GASTEIGER

@<TRIPOS>ATOM
      1 C         140.3219  145.7928  154.5333 C.ar    1  UNL1        0.2400
      2 N         139.8683  146.9983  155.3021 N.ar    1  UNL1       -0.2090
      3 C         139.7843  146.9454  156.7988 C.ar    1  UNL1        0.1042
      4 C         140.0793  145.8471  157.8414 C.ar    1  UNL1        0.0463
      5 C         140.3246  145.3979  156.4315 C.ar    1  UNL1        0.0242
      6 C         140.6916  144.5345  155.2611 C.ar    1  UNL1        0.1179
      7 N         141.1405  143.3503  154.4571 N.pl3   1  UNL1       -0.2104
      8 S         141.6227  141.9739  154.1067 S.O2    1  UNL1        0.0737
      9 O         141.4088  142.8590  152.9148 O.2     1  UNL1       -0.1499
     10 O         141.9330  141.3085  152.7987 O.2     1  UNL1       -0.1499
     11 C         142.1684  140.2655  154.4484 C.ar    1  UNL1        0.1253
     12 C         142.5082  139.4985  153.2050 C.ar    1  UNL1        0.0202
     13 C         142.9750  138.0766  153.3050 C.ar    1  UNL1        0.0015
     14 C         143.1019  137.4216  154.6485 C.ar    1  UNL1        0.0046
     15 C         142.7621  138.1886  155.8919 C.ar    1  UNL1        0.0547
     16 C         142.2953  139.6105  155.7919 C.ar    1  UNL1        0.0247
     17 C         142.9018  137.4990  157.2167 C.2     1  UNL1        0.2461
     18 O         143.3805  136.1572  156.7473 O.2     1  UNL1       -0.2701
     19 N         142.8839  137.2511  158.6959 N.am    1  UNL1       -0.2969
     20 C         142.7104  137.4719  160.1694 C.3     1  UNL1        0.1166
     21 C         142.4000  138.1373  161.4775 C.ar    1  UNL1       -0.0029
     22 C         142.4693  137.6322  162.9336 C.ar    1  UNL1       -0.0026
     23 C         142.1693  138.2626  164.2612 C.ar    1  UNL1       -0.0006
     24 C         141.6918  139.6832  164.3261 C.ar    1  UNL1       -0.0039
     25 C         141.5144  140.4732  163.0634 C.ar    1  UNL1       -0.0164
     26 C         141.9864  139.1752  162.4783 C.ar    1  UNL1       -0.0065
     27 C         141.0352  141.8906  163.1695 C.3     1  UNL1        0.0738
     28 C         140.6006  143.2739  162.7850 C.ar    1  UNL1        0.0861
     29 C         140.3833  143.6328  164.2251 C.ar    1  UNL1        0.1161
     30 N         139.9062  145.0538  164.2818 N.ar    1  UNL1       -0.2181
     31 C         139.8287  145.5730  162.8767 C.ar    1  UNL1        0.1966
     32 S         139.6000  146.4962  161.7167 S.2     1  UNL1       -0.0278
     33 C         139.9822  145.8333  159.3382 C.ar    1  UNL1        0.1350
     34 N         140.0440  145.3582  160.7597 N.ar    1  UNL1       -0.1569
     35 N         140.2578  144.4730  161.9517 N.ar    1  UNL1       -0.2085
     36 H         141.0741  143.7339  153.5528 H       1  UNL1        0.1739
     37 H         143.1943  136.3169  158.7074 H       1  UNL1        0.1501
     38 C         141.5277  146.5891  152.3741 C.3     1  UNL1        0.2543
     39 O         140.4058  145.8459  153.0365 O.3     1  UNL1       -0.4553
@<TRIPOS>BOND
     1    38    39    1
     2    39     1    1
     3     1     2   ar
     4     2     3   ar
     5     3     4   ar
     6     4     5   ar
     7     5     6   ar
     8     6     7    1
     9     7     8    1
    10     8     9    2
    11     8    10    2
    12     8    11    1
    13    11    12   ar
    14    12    13   ar
    15    13    14   ar
    16    14    15   ar
    17    15    16   ar
    18    15    17    1
    19    17    18    2
    20    17    19   am
    21    19    20    1
    22    20    21    1
    23    21    22   ar
    24    22    23   ar
    25    23    24   ar
    26    24    25   ar
    27    25    26   ar
    28    25    27    1
    29    27    28    1
    30    28    29   ar
    31    29    30   ar
    32    30    31   ar
    33    31    32   ar
    34    32    33   ar
    35    33    34   ar
    36    34    35   ar
    37     6     1   ar
    38    16    11   ar
    39    26    21   ar
    40    35    28   ar
    41    33     4    1
    42    35    31   ar
    43     7    36    1
    44    19    37    1
@<TRIPOS>MOLECULE
*****
 39 44 0 0 0
SMALL
GASTEIGER

@<TRIPOS>ATOM
      1 C         143.5881  142.9318  161.4609 C.ar    1  UNL1        0.2400
      2 N         144.3115  141.7682  162.0714 N.ar    1  UNL1       -0.2090
      3 C         144.2072  140.4086  161.4461 C.ar    1  UNL1        0.1042
      4 C         143.4655  139.8623  160.2085 C.ar    1  UNL1        0.0463
      5 C         143.2491  141.3314  160.4203 C.ar    1  UNL1        0.0242
      6 C         142.7604  142.7360  160.2255 C.ar    1  UNL1        0.1179
      7 N         142.0521  143.9240  159.6449 N.pl3   1  UNL1       -0.2104
      8 S         141.2011  144.7666  158.7417 S.O2    1  UNL1        0.0737
      9 O         141.8155  145.5311  159.8766 O.2     1  UNL1       -0.1499
     10 O         140.8437  146.2234  158.7503 O.2     1  UNL1       -0.1499
     11 C         140.1081  145.0966  157.3171 C.ar    1  UNL1        0.1253
     12 C         139.6835  146.5322  157.2237 C.ar    1  UNL1        0.0202
     13 C         138.7825  146.9768  156.1100 C.ar    1  UNL1        0.0015
     14 C         138.3060  145.9858  155.0897 C.ar    1  UNL1        0.0046
     15 C         138.7305  144.5502  155.1832 C.ar    1  UNL1        0.0547
     16 C         139.6315  144.1056  156.2969 C.ar    1  UNL1        0.0247
     17 C         138.2331  143.5895  154.1442 C.2     1  UNL1        0.2461
     18 O         137.4095  144.5286  153.3136 O.2     1  UNL1       -0.2701
     19 N         138.0067  142.3197  153.3785 N.am    1  UNL1       -0.2969
     20 C         138.0760  140.8782  152.9692 C.3     1  UNL1        0.1166
     21 C         138.4335  139.4214  152.9606 C.ar    1  UNL1       -0.0029
     22 C         138.0461  138.2700  152.0096 C.ar    1  UNL1       -0.0026
     23 C         138.3806  136.8084  151.9670 C.ar    1  UNL1       -0.0006
     24 C         139.2729  136.2123  153.0151 C.ar    1  UNL1       -0.0039
     25 C         139.8307  137.0779  154.1058 C.ar    1  UNL1       -0.0164
     26 C         139.0403  138.1071  153.3537 C.ar    1  UNL1       -0.0065
     27 C         140.7191  136.4450  155.1354 C.3     1  UNL1        0.0738
     28 C         141.6093  136.2772  156.3311 C.ar    1  UNL1        0.0861
     29 C         141.7673  134.8144  156.0394 C.ar    1  UNL1        0.1161
     30 N         142.6603  134.2258  157.0910 N.ar    1  UNL1       -0.2181
     31 C         143.0541  135.3247  158.0328 C.ar    1  UNL1        0.1966
     32 S         143.6910  136.0454  159.1839 S.2     1  UNL1       -0.0278
     33 C         143.3859  138.4879  159.6129 C.ar    1  UNL1        0.1350
     34 N         143.0190  137.3571  158.6981 N.ar    1  UNL1       -0.1569
     35 N         142.4046  136.5926  157.5632 N.ar    1  UNL1       -0.2085
     36 H         142.3367  144.6127  160.2883 H       1  UNL1        0.1739
     37 H         137.4173  142.6617  152.6680 H       1  UNL1        0.1501
     38 C         142.7853  144.6670  163.2201 C.3     1  UNL1        0.2543
     39 O         143.6924  144.2913  162.0862 O.3     1  UNL1       -0.4553
@<TRIPOS>BOND
     1    38    39    1
     2    39     1    1
     3     1     2   ar
     4     2     3   ar
     5     3     4   ar
     6     4     5   ar
     7     5     6   ar
     8     6     7    1
     9     7     8    1
    10     8     9    2
    11     8    10    2
    12     8    11    1
    13    11    12   ar
    14    12    13   ar
    15    13    14   ar
    16    14    15   ar
    17    15    16   ar
    18    15    17    1
    19    17    18    2
    20    17    19   am
    21    19    20    1
    22    20    21    1
    23    21    22   ar
    24    22    23   ar
    25    23    24   ar
    26    24    25   ar
    27    25    26   ar
    28    25    27    1
    29    27    28    1
    30    28    29   ar
    31    29    30   ar
    32    30    31   ar
    33    31    32   ar
    34    32    33   ar
    35    33    34   ar
    36    34    35   ar
    37     6     1   ar
    38    16    11   ar
    39    26    21   ar
    40    35    28   ar
    41    33     4    1
    42    35    31   ar
    43     7    36    1
    44    19    37    1
@<TRIPOS>MOLECULE
*****
 39 44 0 0 0
SMALL
GASTEIGER

@<TRIPOS>ATOM
      1 C         142.5944  137.3296  154.4404 C.ar    1  UNL1        0.2400
      2 N         142.8776  136.1771  155.3577 N.ar    1  UNL1       -0.2090
      3 C         142.7928  136.3630  156.8438 C.ar    1  UNL1        0.1042
      4 C         142.4524  137.5671  157.7463 C.ar    1  UNL1        0.0463
      5 C         142.4000  137.8973  156.2841 C.ar    1  UNL1        0.0242
      6 C         142.2264  138.6680  155.0090 C.ar    1  UNL1        0.1179
      7 N         141.9505  139.7957  154.0593 N.pl3   1  UNL1       -0.2104
      8 S         141.6021  141.1584  153.5378 S.O2    1  UNL1        0.0737
      9 O         141.8931  140.1569  152.4597 O.2     1  UNL1       -0.1499
     10 O         141.4876  141.7164  152.1502 O.2     1  UNL1       -0.1499
     11 C         141.1331  142.9181  153.6651 C.ar    1  UNL1        0.1253
     12 C         140.9886  143.5848  152.3293 C.ar    1  UNL1        0.0202
     13 C         140.6069  145.0333  152.2513 C.ar    1  UNL1        0.0015
     14 C         140.3697  145.8151  153.5093 C.ar    1  UNL1        0.0046
     15 C         140.5143  145.1485  154.8452 C.ar    1  UNL1        0.0547
     16 C         140.8960  143.7000  154.9231 C.ar    1  UNL1        0.0247
     17 C         140.2689  145.9637  156.0802 C.2     1  UNL1        0.2461
     18 O         139.9354  147.2807  155.4444 O.2     1  UNL1       -0.2701
     19 N         140.1333  146.3454  157.5244 N.am    1  UNL1       -0.2969
     20 C         140.1222  146.2521  159.0215 C.3     1  UNL1        0.1166
     21 C         140.2367  145.6940  160.4091 C.ar    1  UNL1       -0.0029
     22 C         140.0340  146.3341  161.7982 C.ar    1  UNL1       -0.0026
     23 C         140.1384  145.8132  163.2010 C.ar    1  UNL1       -0.0006
     24 C         140.5119  144.3807  163.4432 C.ar    1  UNL1       -0.0039
     25 C         140.7810  143.4692  162.2826 C.ar    1  UNL1       -0.0164
     26 C         140.4646  144.7317  161.5370 C.ar    1  UNL1       -0.0065
     27 C         141.1518  142.0436  162.5656 C.3     1  UNL1        0.0738
     28 C         141.5366  140.6092  162.3549 C.ar    1  UNL1        0.0861
     29 C         141.5637  140.3730  163.8360 C.ar    1  UNL1        0.1161
     30 N         141.9378  138.9394  164.0700 N.ar    1  UNL1       -0.2181
     31 C         142.1418  138.2895  162.7337 C.ar    1  UNL1        0.1966
     32 S         142.4414  137.2524  161.6922 S.2     1  UNL1       -0.0278
     33 C         142.3780  137.7133  159.2373 C.ar    1  UNL1        0.1350
     34 N         142.1849  138.3199  160.5956 N.ar    1  UNL1       -0.1569
     35 N         141.8939  139.3215  161.6737 N.ar    1  UNL1       -0.2085
     36 H         142.0949  139.3275  153.2054 H       1  UNL1        0.1739
     37 H         139.8851  147.2922  157.4191 H       1  UNL1        0.1501
     38 C         141.5248  136.5457  152.2062 C.3     1  UNL1        0.2543
     39 O         142.6792  137.1436  152.9544 O.3     1  UNL1       -0.4553
@<TRIPOS>BOND
     1    38    39    1
     2    39     1    1
     3     1     2   ar
     4     2     3   ar
     5     3     4   ar
     6     4     5   ar
     7     5     6   ar
     8     6     7    1
     9     7     8    1
    10     8     9    2
    11     8    10    2
    12     8    11    1
    13    11    12   ar
    14    12    13   ar
    15    13    14   ar
    16    14    15   ar
    17    15    16   ar
    18    15    17    1
    19    17    18    2
    20    17    19   am
    21    19    20    1
    22    20    21    1
    23    21    22   ar
    24    22    23   ar
    25    23    24   ar
    26    24    25   ar
    27    25    26   ar
    28    25    27    1
    29    27    28    1
    30    28    29   ar
    31    29    30   ar
    32    30    31   ar
    33    31    32   ar
    34    32    33   ar
    35    33    34   ar
    36    34    35   ar
    37     6     1   ar
    38    16    11   ar
    39    26    21   ar
    40    35    28   ar
    41    33     4    1
    42    35    31   ar
    43     7    36    1
    44    19    37    1
@<TRIPOS>MOLECULE
*****
 39 44 0 0 0
SMALL
GASTEIGER

@<TRIPOS>ATOM
      1 C         139.8206  145.4626  162.2656 C.ar    1  UNL1        0.2400
      2 N         139.4596  146.7645  161.6136 N.ar    1  UNL1       -0.2090
      3 C         139.5988  146.9235  160.1285 C.ar    1  UNL1        0.1042
      4 C         140.0680  145.9837  158.9986 C.ar    1  UNL1        0.0463
      5 C         140.1120  145.3398  160.3527 C.ar    1  UNL1        0.0242
      6 C         140.3207  144.3199  161.4325 C.ar    1  UNL1        0.1179
      7 N         140.6713  143.0342  162.1211 N.pl3   1  UNL1       -0.2104
      8 S         141.1259  141.6223  162.3439 S.O2    1  UNL1        0.0737
      9 O         140.7194  142.3300  163.6023 O.2     1  UNL1       -0.1499
     10 O         141.2540  140.7789  163.5776 O.2     1  UNL1       -0.1499
     11 C         141.7527  139.9796  161.8522 C.ar    1  UNL1        0.1253
     12 C         141.9216  139.0447  163.0130 C.ar    1  UNL1        0.0202
     13 C         142.4285  137.6513  162.7861 C.ar    1  UNL1        0.0015
     14 C         142.7665  137.1928  161.3985 C.ar    1  UNL1        0.0046
     15 C         142.5976  138.1277  160.2377 C.ar    1  UNL1        0.0547
     16 C         142.0907  139.5211  160.4645 C.ar    1  UNL1        0.0247
     17 C         142.9461  137.6323  158.8654 C.2     1  UNL1        0.2461
     18 O         143.3791  136.2378  159.2089 O.2     1  UNL1       -0.2701
     19 N         143.1522  137.5959  157.3801 N.am    1  UNL1       -0.2969
     20 C         143.1935  138.0226  155.9426 C.3     1  UNL1        0.1166
     21 C         143.0654  138.8660  154.7088 C.ar    1  UNL1       -0.0029
     22 C         143.3598  138.5718  153.2232 C.ar    1  UNL1       -0.0026
     23 C         143.2456  139.3834  151.9669 C.ar    1  UNL1       -0.0006
     24 C         142.7525  140.7986  152.0305 C.ar    1  UNL1       -0.0039
     25 C         142.3737  141.4022  153.3504 C.ar    1  UNL1       -0.0164
     26 C         142.7819  140.0348  153.8123 C.ar    1  UNL1       -0.0065
     27 C         141.8850  142.8202  153.3730 C.3     1  UNL1        0.0738
     28 C         141.3688  144.1351  153.8778 C.ar    1  UNL1        0.0861
     29 C         141.3589  144.6938  152.4858 C.ar    1  UNL1        0.1161
     30 N         140.8650  146.1083  152.5576 N.ar    1  UNL1       -0.2181
     31 C         140.5697  146.4238  153.9939 C.ar    1  UNL1        0.1966
     32 S         140.1524  147.1737  155.2242 S.2     1  UNL1       -0.0278
     33 C         140.1934  146.1815  157.5170 C.ar    1  UNL1        0.1350
     34 N         140.4745  145.9120  156.0684 N.ar    1  UNL1       -0.1569
     35 N         140.8810  145.2043  154.8098 N.ar    1  UNL1       -0.2085
     36 H         140.4639  143.2861  163.0500 H       1  UNL1        0.1739
     37 H         143.4809  136.6728  157.2847 H       1  UNL1        0.1501
     38 C         138.4368  144.6963  164.3266 C.3     1  UNL1        0.2543
     39 O         139.6815  145.3037  163.7506 O.3     1  UNL1       -0.4553
@<TRIPOS>BOND
     1    38    39    1
     2    39     1    1
     3     1     2   ar
     4     2     3   ar
     5     3     4   ar
     6     4     5   ar
     7     5     6   ar
     8     6     7    1
     9     7     8    1
    10     8     9    2
    11     8    10    2
    12     8    11    1
    13    11    12   ar
    14    12    13   ar
    15    13    14   ar
    16    14    15   ar
    17    15    16   ar
    18    15    17    1
    19    17    18    2
    20    17    19   am
    21    19    20    1
    22    20    21    1
    23    21    22   ar
    24    22    23   ar
    25    23    24   ar
    26    24    25   ar
    27    25    26   ar
    28    25    27    1
    29    27    28    1
    30    28    29   ar
    31    29    30   ar
    32    30    31   ar
    33    31    32   ar
    34    32    33   ar
    35    33    34   ar
    36    34    35   ar
    37     6     1   ar
    38    16    11   ar
    39    26    21   ar
    40    35    28   ar
    41    33     4    1
    42    35    31   ar
    43     7    36    1
    44    19    37    1
