@<TRIPOS>MOLECULE
*****
 27 29 0 0 0
SMALL
GASTEIGER

@<TRIPOS>ATOM
      1 C         140.4460  143.0203  166.0874 C.3     1  UNL1        0.0221
      2 C         139.3633  143.9657  165.6585 C.3     1  UNL1        0.0060
      3 C         139.5278  144.7765  164.4073 C.3     1  UNL1        0.0199
      4 C         140.7750  144.6418  163.5848 C.3     1  UNL1        0.0716
      5 C         141.8577  143.6964  164.0137 C.3     1  UNL1        0.0199
      6 C         141.6932  142.8856  165.2650 C.3     1  UNL1        0.0060
      7 C         139.4261  140.2036  165.9265 C.3     1  UNL1        0.0308
      8 C         139.7715  140.8012  167.2582 C.ar    1  UNL1       -0.0228
      9 C         139.6070  139.9906  168.5095 C.ar    1  UNL1        0.0321
     10 C         139.9525  140.5882  169.8412 C.ar    1  UNL1        0.1333
     11 O         139.7880  139.7775  171.0925 O.3     1  UNL1       -0.5055
     12 C         140.4625  141.9965  169.9216 C.ar    1  UNL1        0.0363
     13 C         140.6270  142.8072  168.6704 C.ar    1  UNL1       -0.0015
     14 C         140.2815  142.2095  167.3387 C.ar    1  UNL1       -0.0262
     15 H         139.4694  138.8977  171.0422 H       1  UNL1        0.2922
     16 N         140.9395  145.4525  162.3336 N.am    1  UNL1       -0.3060
     17 C         140.1816  145.0805  161.0938 C.2     1  UNL1        0.2228
     18 O         139.2591  143.8977  161.1052 O.2     1  UNL1       -0.2751
     19 H         141.5449  146.2288  162.3261 H       1  UNL1        0.1494
     20 C         140.3460  145.8912  159.8426 C.3     1  UNL1        0.0897
     21 C         141.2256  145.3912  158.7351 C.3     1  UNL1        0.0359
     22 C         140.9343  145.7752  157.3146 C.ar    1  UNL1       -0.0217
     23 C         139.7462  146.6346  156.9985 C.ar    1  UNL1       -0.0043
     24 C         139.4549  147.0185  155.5781 C.ar    1  UNL1       -0.0003
     25 C         140.3517  146.5430  154.4737 C.ar    1  UNL1       -0.0000
     26 C         141.5397  145.6837  154.7898 C.ar    1  UNL1       -0.0003
     27 C         141.8311  145.2997  156.2102 C.ar    1  UNL1       -0.0043
@<TRIPOS>BOND
     1     7     8    1
     2     8     9   ar
     3     9    10   ar
     4    10    11    1
     5    10    12   ar
     6    12    13   ar
     7    13    14   ar
     8     1    14    1
     9     1     2    1
    10     2     3    1
    11     3     4    1
    12     4    16    1
    13    16    17   am
    14    17    18    2
    15    17    20    1
    16    20    21    1
    17    21    22    1
    18    22    23   ar
    19    23    24   ar
    20    24    25   ar
    21    25    26   ar
    22    26    27   ar
    23     4     5    1
    24     5     6    1
    25    14     8   ar
    26     6     1    1
    27    27    22   ar
    28    11    15    1
    29    16    19    1
@<TRIPOS>MOLECULE
*****
 27 29 0 0 0
SMALL
GASTEIGER

@<TRIPOS>ATOM
      1 C         139.6141  140.5293  166.9229 C.3     1  UNL1        0.0221
      2 C         138.7608  139.3557  166.5428 C.3     1  UNL1        0.0060
      3 C         138.0590  139.3367  165.2172 C.3     1  UNL1        0.0199
      4 C         138.2106  140.4913  164.2717 C.3     1  UNL1        0.0716
      5 C         139.0640  141.6649  164.6517 C.3     1  UNL1        0.0199
      6 C         139.7657  141.6839  165.9774 C.3     1  UNL1        0.0060
      7 C         142.4136  139.4760  167.1534 C.3     1  UNL1        0.0308
      8 C         141.7156  140.0217  168.3638 C.ar    1  UNL1       -0.0228
      9 C         142.4172  140.0407  169.6894 C.ar    1  UNL1        0.0321
     10 C         141.7192  140.5864  170.8997 C.ar    1  UNL1        0.1333
     11 O         142.4209  140.6054  172.2254 O.3     1  UNL1       -0.5055
     12 C         140.3194  141.1131  170.7845 C.ar    1  UNL1        0.0363
     13 C         139.6178  141.0940  169.4589 C.ar    1  UNL1       -0.0015
     14 C         140.3158  140.5483  168.2485 C.ar    1  UNL1       -0.0262
     15 H         143.2953  140.2764  172.2974 H       1  UNL1        0.2922
     16 N         137.5089  140.4722  162.9461 N.am    1  UNL1       -0.3060
     17 C         138.0358  139.6187  161.8308 C.2     1  UNL1        0.2228
     18 O         139.2644  138.7843  162.0410 O.2     1  UNL1       -0.2751
     19 H         136.7025  141.0199  162.8081 H       1  UNL1        0.1494
     20 C         137.3341  139.5997  160.5052 C.3     1  UNL1        0.0897
     21 C         137.9299  140.3178  159.3308 C.3     1  UNL1        0.0359
     22 C         139.0462  141.2980  159.5386 C.ar    1  UNL1       -0.0217
     23 C         140.4652  140.8834  159.2844 C.ar    1  UNL1       -0.0043
     24 C         141.5816  141.8635  159.4922 C.ar    1  UNL1       -0.0003
     25 C         141.2789  143.2581  159.9541 C.ar    1  UNL1       -0.0000
     26 C         139.8599  143.6726  160.2082 C.ar    1  UNL1       -0.0003
     27 C         138.7436  142.6926  160.0005 C.ar    1  UNL1       -0.0043
@<TRIPOS>BOND
     1     7     8    1
     2     8     9   ar
     3     9    10   ar
     4    10    11    1
     5    10    12   ar
     6    12    13   ar
     7    13    14   ar
     8     1    14    1
     9     1     2    1
    10     2     3    1
    11     3     4    1
    12     4    16    1
    13    16    17   am
    14    17    18    2
    15    17    20    1
    16    20    21    1
    17    21    22    1
    18    22    23   ar
    19    23    24   ar
    20    24    25   ar
    21    25    26   ar
    22    26    27   ar
    23     4     5    1
    24     5     6    1
    25    14     8   ar
    26     6     1    1
    27    27    22   ar
    28    11    15    1
    29    16    19    1
@<TRIPOS>MOLECULE
*****
 27 29 0 0 0
SMALL
GASTEIGER

@<TRIPOS>ATOM
      1 C         140.4869  142.9870  166.1077 C.3     1  UNL1        0.0221
      2 C         139.3980  143.9165  165.6601 C.3     1  UNL1        0.0060
      3 C         139.5644  144.7159  164.4018 C.3     1  UNL1        0.0199
      4 C         140.8198  144.5858  163.5911 C.3     1  UNL1        0.0716
      5 C         141.9087  143.6563  164.0387 C.3     1  UNL1        0.0199
      6 C         141.7422  142.8569  165.2971 C.3     1  UNL1        0.0060
      7 C         139.4431  140.1776  165.9730 C.3     1  UNL1        0.0308
      8 C         139.7985  140.7829  167.2986 C.ar    1  UNL1       -0.0228
      9 C         139.6320  139.9835  168.5569 C.ar    1  UNL1        0.0321
     10 C         139.9875  140.5888  169.8825 C.ar    1  UNL1        0.1333
     11 O         139.8210  139.7894  171.1408 O.3     1  UNL1       -0.5055
     12 C         140.5093  141.9935  169.9499 C.ar    1  UNL1        0.0363
     13 C         140.6758  142.7928  168.6916 C.ar    1  UNL1       -0.0015
     14 C         140.3204  142.1875  167.3660 C.ar    1  UNL1       -0.0262
     15 H         139.4949  138.9119  171.0987 H       1  UNL1        0.2922
     16 N         140.9863  145.3852  162.3329 N.am    1  UNL1       -0.3060
     17 C         140.1535  145.0671  161.1265 C.2     1  UNL1        0.2228
     18 O         139.1544  143.9496  161.1784 O.2     1  UNL1       -0.2751
     19 H         141.6421  146.1187  162.2989 H       1  UNL1        0.1494
     20 C         140.3200  145.8665  159.8683 C.3     1  UNL1        0.0897
     21 C         140.3232  145.1767  158.5363 C.3     1  UNL1        0.0359
     22 C         141.2094  143.9878  158.3096 C.ar    1  UNL1       -0.0217
     23 C         140.6188  142.6096  158.2664 C.ar    1  UNL1       -0.0043
     24 C         141.5049  141.4207  158.0397 C.ar    1  UNL1       -0.0003
     25 C         142.9815  141.6101  157.8561 C.ar    1  UNL1       -0.0000
     26 C         143.5720  142.9883  157.8993 C.ar    1  UNL1       -0.0003
     27 C         142.6860  144.1771  158.1260 C.ar    1  UNL1       -0.0043
@<TRIPOS>BOND
     1     7     8    1
     2     8     9   ar
     3     9    10   ar
     4    10    11    1
     5    10    12   ar
     6    12    13   ar
     7    13    14   ar
     8     1    14    1
     9     1     2    1
    10     2     3    1
    11     3     4    1
    12     4    16    1
    13    16    17   am
    14    17    18    2
    15    17    20    1
    16    20    21    1
    17    21    22    1
    18    22    23   ar
    19    23    24   ar
    20    24    25   ar
    21    25    26   ar
    22    26    27   ar
    23     4     5    1
    24     5     6    1
    25    14     8   ar
    26     6     1    1
    27    27    22   ar
    28    11    15    1
    29    16    19    1
@<TRIPOS>MOLECULE
*****
 27 29 0 0 0
SMALL
GASTEIGER

@<TRIPOS>ATOM
      1 C         139.7351  140.0832  166.0299 C.3     1  UNL1        0.0221
      2 C         138.4913  140.2267  165.2039 C.3     1  UNL1        0.0060
      3 C         138.4186  139.6008  163.8427 C.3     1  UNL1        0.0199
      4 C         139.5898  138.8313  163.3074 C.3     1  UNL1        0.0716
      5 C         140.8336  138.6878  164.1334 C.3     1  UNL1        0.0199
      6 C         140.9063  139.3137  165.4947 C.3     1  UNL1        0.0060
      7 C         140.9233  142.8178  166.3620 C.3     1  UNL1        0.0308
      8 C         140.4019  142.0764  167.5572 C.ar    1  UNL1       -0.0228
      9 C         140.4745  142.7022  168.9184 C.ar    1  UNL1        0.0321
     10 C         139.9531  141.9608  170.1136 C.ar    1  UNL1        0.1333
     11 O         140.0258  142.5868  171.4749 O.3     1  UNL1       -0.5055
     12 C         139.3590  140.5936  169.9476 C.ar    1  UNL1        0.0363
     13 C         139.2864  139.9677  168.5863 C.ar    1  UNL1       -0.0015
     14 C         139.8078  140.7091  167.3912 C.ar    1  UNL1       -0.0262
     15 H         140.3969  143.4409  171.5786 H       1  UNL1        0.2922
     16 N         139.5171  138.2054  161.9462 N.am    1  UNL1       -0.3060
     17 C         139.8147  139.0262  160.7264 C.2     1  UNL1        0.2228
     18 O         140.1850  140.4728  160.8679 O.2     1  UNL1       -0.2751
     19 H         139.2740  137.2559  161.8533 H       1  UNL1        0.1494
     20 C         139.7420  138.4003  159.3652 C.3     1  UNL1        0.0897
     21 C         140.7872  138.7174  158.3371 C.3     1  UNL1        0.0359
     22 C         141.2608  137.6502  157.3953 C.ar    1  UNL1       -0.0217
     23 C         142.6427  137.0841  157.5372 C.ar    1  UNL1       -0.0043
     24 C         143.1163  136.0171  156.5954 C.ar    1  UNL1       -0.0003
     25 C         142.2082  135.5161  155.5118 C.ar    1  UNL1       -0.0000
     26 C         140.8264  136.0822  155.3700 C.ar    1  UNL1       -0.0003
     27 C         140.3527  137.1492  156.3117 C.ar    1  UNL1       -0.0043
@<TRIPOS>BOND
     1     7     8    1
     2     8     9   ar
     3     9    10   ar
     4    10    11    1
     5    10    12   ar
     6    12    13   ar
     7    13    14   ar
     8     1    14    1
     9     1     2    1
    10     2     3    1
    11     3     4    1
    12     4    16    1
    13    16    17   am
    14    17    18    2
    15    17    20    1
    16    20    21    1
    17    21    22    1
    18    22    23   ar
    19    23    24   ar
    20    24    25   ar
    21    25    26   ar
    22    26    27   ar
    23     4     5    1
    24     5     6    1
    25    14     8   ar
    26     6     1    1
    27    27    22   ar
    28    11    15    1
    29    16    19    1
@<TRIPOS>MOLECULE
*****
 27 29 0 0 0
SMALL
GASTEIGER

@<TRIPOS>ATOM
      1 C         142.1045  140.3474  166.7257 C.3     1  UNL1        0.0221
      2 C         142.8691  139.0676  166.5597 C.3     1  UNL1        0.0060
      3 C         143.2949  138.6203  165.1928 C.3     1  UNL1        0.0199
      4 C         142.9561  139.4528  163.9918 C.3     1  UNL1        0.0716
      5 C         142.1914  140.7325  164.1578 C.3     1  UNL1        0.0199
      6 C         141.7656  141.1799  165.5248 C.3     1  UNL1        0.0060
      7 C         139.3264  139.7651  167.6970 C.3     1  UNL1        0.0308
      8 C         140.2897  140.5036  168.5784 C.ar    1  UNL1       -0.0228
      9 C         139.8639  140.9509  169.9453 C.ar    1  UNL1        0.0321
     10 C         140.8272  141.6894  170.8267 C.ar    1  UNL1        0.1333
     11 O         140.4014  142.1367  172.1937 O.3     1  UNL1       -0.5055
     12 C         142.2162  141.9805  170.3411 C.ar    1  UNL1        0.0363
     13 C         142.6419  141.5332  168.9741 C.ar    1  UNL1       -0.0015
     14 C         141.6787  140.7947  168.0928 C.ar    1  UNL1       -0.0262
     15 H         139.5337  141.9548  172.4970 H       1  UNL1        0.2922
     16 N         143.3818  139.0054  162.6249 N.am    1  UNL1       -0.3060
     17 C         142.5598  137.9994  161.8750 C.2     1  UNL1        0.2228
     18 O         141.3120  137.4408  162.4921 O.2     1  UNL1       -0.2751
     19 H         144.2008  139.3721  162.2198 H       1  UNL1        0.1494
     20 C         142.9856  137.5521  160.5081 C.3     1  UNL1        0.0897
     21 C         142.2144  137.9946  159.3000 C.3     1  UNL1        0.0359
     22 C         142.7856  137.7880  157.9285 C.ar    1  UNL1       -0.0217
     23 C         142.9360  136.4000  157.3799 C.ar    1  UNL1       -0.0043
     24 C         143.5071  136.1934  156.0084 C.ar    1  UNL1       -0.0003
     25 C         143.9280  137.3748  155.1855 C.ar    1  UNL1       -0.0000
     26 C         143.7776  138.7627  155.7340 C.ar    1  UNL1       -0.0003
     27 C         143.2065  138.9694  157.1055 C.ar    1  UNL1       -0.0043
@<TRIPOS>BOND
     1     7     8    1
     2     8     9   ar
     3     9    10   ar
     4    10    11    1
     5    10    12   ar
     6    12    13   ar
     7    13    14   ar
     8     1    14    1
     9     1     2    1
    10     2     3    1
    11     3     4    1
    12     4    16    1
    13    16    17   am
    14    17    18    2
    15    17    20    1
    16    20    21    1
    17    21    22    1
    18    22    23   ar
    19    23    24   ar
    20    24    25   ar
    21    25    26   ar
    22    26    27   ar
    23     4     5    1
    24     5     6    1
    25    14     8   ar
    26     6     1    1
    27    27    22   ar
    28    11    15    1
    29    16    19    1
@<TRIPOS>MOLECULE
*****
 27 29 0 0 0
SMALL
GASTEIGER

@<TRIPOS>ATOM
      1 C         143.0396  142.0019  166.4831 C.3     1  UNL1        0.0221
      2 C         142.7675  140.8286  165.5890 C.3     1  UNL1        0.0060
      3 C         143.3950  140.7611  164.2283 C.3     1  UNL1        0.0199
      4 C         144.2947  141.8669  163.7616 C.3     1  UNL1        0.0716
      5 C         144.5668  143.0402  164.6556 C.3     1  UNL1        0.0199
      6 C         143.9392  143.1077  166.0164 C.3     1  UNL1        0.0060
      7 C         140.2240  142.9913  166.7891 C.3     1  UNL1        0.0308
      8 C         141.0043  142.5641  167.9969 C.ar    1  UNL1       -0.0228
      9 C         140.3768  142.6315  169.3576 C.ar    1  UNL1        0.0321
     10 C         141.1570  142.2042  170.5654 C.ar    1  UNL1        0.1333
     11 O         140.5294  142.2717  171.9262 O.3     1  UNL1       -0.5055
     12 C         142.5648  141.7096  170.4124 C.ar    1  UNL1        0.0363
     13 C         143.1923  141.6421  169.0516 C.ar    1  UNL1       -0.0015
     14 C         142.4120  142.0694  167.8439 C.ar    1  UNL1       -0.0262
     15 H         139.6500  142.5807  172.0217 H       1  UNL1        0.2922
     16 N         144.9222  141.7994  162.4009 N.am    1  UNL1       -0.3060
     17 C         144.5284  142.7878  161.3435 C.2     1  UNL1        0.2228
     18 O         143.5071  143.8436  161.6468 O.2     1  UNL1       -0.2751
     19 H         145.5926  141.1065  162.2018 H       1  UNL1        0.1494
     20 C         145.1559  142.7203  159.9827 C.3     1  UNL1        0.0897
     21 C         144.2920  142.5818  158.7644 C.3     1  UNL1        0.0359
     22 C         144.7791  141.7929  157.5852 C.ar    1  UNL1       -0.0217
     23 C         146.0250  142.2142  156.8640 C.ar    1  UNL1       -0.0043
     24 C         146.5121  141.4253  155.6849 C.ar    1  UNL1       -0.0003
     25 C         145.7533  140.2151  155.2270 C.ar    1  UNL1       -0.0000
     26 C         144.5074  139.7938  155.9483 C.ar    1  UNL1       -0.0003
     27 C         144.0203  140.5827  157.1274 C.ar    1  UNL1       -0.0043
@<TRIPOS>BOND
     1     7     8    1
     2     8     9   ar
     3     9    10   ar
     4    10    11    1
     5    10    12   ar
     6    12    13   ar
     7    13    14   ar
     8     1    14    1
     9     1     2    1
    10     2     3    1
    11     3     4    1
    12     4    16    1
    13    16    17   am
    14    17    18    2
    15    17    20    1
    16    20    21    1
    17    21    22    1
    18    22    23   ar
    19    23    24   ar
    20    24    25   ar
    21    25    26   ar
    22    26    27   ar
    23     4     5    1
    24     5     6    1
    25    14     8   ar
    26     6     1    1
    27    27    22   ar
    28    11    15    1
    29    16    19    1
@<TRIPOS>MOLECULE
*****
 27 29 0 0 0
SMALL
GASTEIGER

@<TRIPOS>ATOM
      1 C         142.2168  140.3587  166.8156 C.3     1  UNL1        0.0221
      2 C         142.8982  139.0303  166.6710 C.3     1  UNL1        0.0060
      3 C         143.3546  138.5645  165.3202 C.3     1  UNL1        0.0199
      4 C         143.1295  139.4272  164.1138 C.3     1  UNL1        0.0716
      5 C         142.4481  140.7556  164.2584 C.3     1  UNL1        0.0199
      6 C         141.9918  141.2214  165.6093 C.3     1  UNL1        0.0060
      7 C         139.3926  139.8635  167.6979 C.3     1  UNL1        0.0308
      8 C         140.3484  140.5769  168.6076 C.ar    1  UNL1       -0.0228
      9 C         139.8921  141.0426  169.9584 C.ar    1  UNL1        0.0321
     10 C         140.8479  141.7560  170.8682 C.ar    1  UNL1        0.1333
     11 O         140.3915  142.2217  172.2191 O.3     1  UNL1       -0.5055
     12 C         142.2599  142.0036  170.4270 C.ar    1  UNL1        0.0363
     13 C         142.7162  141.5378  169.0762 C.ar    1  UNL1       -0.0015
     14 C         141.7605  140.8245  168.1665 C.ar    1  UNL1       -0.0262
     15 H         139.5094  142.0670  172.4946 H       1  UNL1        0.2922
     16 N         143.5859  138.9614  162.7630 N.am    1  UNL1       -0.3060
     17 C         142.7498  137.9911  161.9823 C.2     1  UNL1        0.2228
     18 O         141.4574  137.4867  162.5524 O.2     1  UNL1       -0.2751
     19 H         144.4342  139.2925  162.3889 H       1  UNL1        0.1494
     20 C         143.2062  137.5254  160.6315 C.3     1  UNL1        0.0897
     21 C         142.6886  138.1948  159.3930 C.3     1  UNL1        0.0359
     22 C         141.5499  139.1669  159.4859 C.ar    1  UNL1       -0.0217
     23 C         140.1360  138.6786  159.3749 C.ar    1  UNL1       -0.0043
     24 C         138.9974  139.6506  159.4679 C.ar    1  UNL1       -0.0003
     25 C         139.2727  141.1109  159.6718 C.ar    1  UNL1       -0.0000
     26 C         140.6866  141.5992  159.7827 C.ar    1  UNL1       -0.0003
     27 C         141.8252  140.6272  159.6898 C.ar    1  UNL1       -0.0043
@<TRIPOS>BOND
     1     7     8    1
     2     8     9   ar
     3     9    10   ar
     4    10    11    1
     5    10    12   ar
     6    12    13   ar
     7    13    14   ar
     8     1    14    1
     9     1     2    1
    10     2     3    1
    11     3     4    1
    12     4    16    1
    13    16    17   am
    14    17    18    2
    15    17    20    1
    16    20    21    1
    17    21    22    1
    18    22    23   ar
    19    23    24   ar
    20    24    25   ar
    21    25    26   ar
    22    26    27   ar
    23     4     5    1
    24     5     6    1
    25    14     8   ar
    26     6     1    1
    27    27    22   ar
    28    11    15    1
    29    16    19    1
@<TRIPOS>MOLECULE
*****
 27 29 0 0 0
SMALL
GASTEIGER

@<TRIPOS>ATOM
      1 C         142.9348  141.9272  166.6211 C.3     1  UNL1        0.0221
      2 C         142.6598  140.7578  165.7228 C.3     1  UNL1        0.0060
      3 C         143.2659  140.7064  164.3517 C.3     1  UNL1        0.0199
      4 C         144.1469  141.8246  163.8787 C.3     1  UNL1        0.0716
      5 C         144.4219  142.9940  164.7770 C.3     1  UNL1        0.0199
      6 C         143.8158  143.0453  166.1482 C.3     1  UNL1        0.0060
      7 C         140.1704  143.0295  166.9990 C.3     1  UNL1        0.0308
      8 C         140.9465  142.5296  168.1812 C.ar    1  UNL1       -0.0228
      9 C         140.3405  142.5809  169.5523 C.ar    1  UNL1        0.0321
     10 C         141.1167  142.0810  170.7346 C.ar    1  UNL1        0.1333
     11 O         140.5107  142.1323  172.1058 O.3     1  UNL1       -0.5055
     12 C         142.4989  141.5298  170.5456 C.ar    1  UNL1        0.0363
     13 C         143.1049  141.4786  169.1745 C.ar    1  UNL1       -0.0015
     14 C         142.3287  141.9785  167.9923 C.ar    1  UNL1       -0.0262
     15 H         139.6472  142.4765  172.2238 H       1  UNL1        0.2922
     16 N         144.7529  141.7733  162.5076 N.am    1  UNL1       -0.3060
     17 C         144.1380  142.5568  161.3860 C.2     1  UNL1        0.2228
     18 O         142.9171  143.3917  161.6356 O.2     1  UNL1       -0.2751
     19 H         145.5542  141.2253  162.3438 H       1  UNL1        0.1494
     20 C         144.7440  142.5055  160.0149 C.3     1  UNL1        0.0897
     21 C         144.2851  141.4711  159.0303 C.3     1  UNL1        0.0359
     22 C         143.2746  140.4413  159.4406 C.ar    1  UNL1       -0.0217
     23 C         141.8124  140.6977  159.2251 C.ar    1  UNL1       -0.0043
     24 C         140.8019  139.6680  159.6353 C.ar    1  UNL1       -0.0003
     25 C         141.2535  138.3818  160.2612 C.ar    1  UNL1       -0.0000
     26 C         142.7156  138.1253  160.4767 C.ar    1  UNL1       -0.0003
     27 C         143.7261  139.1551  160.0664 C.ar    1  UNL1       -0.0043
@<TRIPOS>BOND
     1     7     8    1
     2     8     9   ar
     3     9    10   ar
     4    10    11    1
     5    10    12   ar
     6    12    13   ar
     7    13    14   ar
     8     1    14    1
     9     1     2    1
    10     2     3    1
    11     3     4    1
    12     4    16    1
    13    16    17   am
    14    17    18    2
    15    17    20    1
    16    20    21    1
    17    21    22    1
    18    22    23   ar
    19    23    24   ar
    20    24    25   ar
    21    25    26   ar
    22    26    27   ar
    23     4     5    1
    24     5     6    1
    25    14     8   ar
    26     6     1    1
    27    27    22   ar
    28    11    15    1
    29    16    19    1
@<TRIPOS>MOLECULE
*****
 27 29 0 0 0
SMALL
GASTEIGER

@<TRIPOS>ATOM
      1 C         141.7366  139.9572  167.0013 C.3     1  UNL1        0.0221
      2 C         142.8732  138.9886  166.8592 C.3     1  UNL1        0.0060
      3 C         143.1973  138.4045  165.5162 C.3     1  UNL1        0.0199
      4 C         142.3848  138.7889  164.3152 C.3     1  UNL1        0.0716
      5 C         141.2483  139.7575  164.4573 C.3     1  UNL1        0.0199
      6 C         140.9242  140.3416  165.8004 C.3     1  UNL1        0.0060
      7 C         143.2175  142.3747  167.9826 C.3     1  UNL1        0.0308
      8 C         142.1530  141.7500  168.8350 C.ar    1  UNL1       -0.0228
      9 C         141.8288  142.3341  170.1781 C.ar    1  UNL1        0.0321
     10 C         140.7643  141.7094  171.0305 C.ar    1  UNL1        0.1333
     11 O         140.4402  142.2936  172.3736 O.3     1  UNL1       -0.5055
     12 C         140.0239  140.5007  170.5399 C.ar    1  UNL1        0.0363
     13 C         140.3480  139.9167  169.1968 C.ar    1  UNL1       -0.0015
     14 C         141.4125  140.5413  168.3444 C.ar    1  UNL1       -0.0262
     15 H         140.9028  143.0486  172.6800 H       1  UNL1        0.2922
     16 N         142.7090  138.2048  162.9722 N.am    1  UNL1       -0.3060
     17 C         143.6276  138.9356  162.0384 C.2     1  UNL1        0.2228
     18 O         144.2221  140.2505  162.4475 O.2     1  UNL1       -0.2751
     19 H         142.3187  137.3418  162.7036 H       1  UNL1        0.1494
     20 C         143.9517  138.3515  160.6954 C.3     1  UNL1        0.0897
     21 C         143.0722  138.6473  159.5168 C.3     1  UNL1        0.0359
     22 C         141.7681  139.3615  159.7147 C.ar    1  UNL1       -0.0217
     23 C         140.5238  138.5806  160.0182 C.ar    1  UNL1       -0.0043
     24 C         139.2197  139.2948  160.2161 C.ar    1  UNL1       -0.0003
     25 C         139.1598  140.7898  160.1105 C.ar    1  UNL1       -0.0000
     26 C         140.4041  141.5707  159.8070 C.ar    1  UNL1       -0.0003
     27 C         141.7082  140.8566  159.6091 C.ar    1  UNL1       -0.0043
@<TRIPOS>BOND
     1     7     8    1
     2     8     9   ar
     3     9    10   ar
     4    10    11    1
     5    10    12   ar
     6    12    13   ar
     7    13    14   ar
     8     1    14    1
     9     1     2    1
    10     2     3    1
    11     3     4    1
    12     4    16    1
    13    16    17   am
    14    17    18    2
    15    17    20    1
    16    20    21    1
    17    21    22    1
    18    22    23   ar
    19    23    24   ar
    20    24    25   ar
    21    25    26   ar
    22    26    27   ar
    23     4     5    1
    24     5     6    1
    25    14     8   ar
    26     6     1    1
    27    27    22   ar
    28    11    15    1
    29    16    19    1
