@<TRIPOS>MOLECULE
*****
 30 33 0 0 0
SMALL
GASTEIGER

@<TRIPOS>ATOM
      1 O         138.7269  138.9088  160.0361 O.2     1  UNL1       -0.2665
      2 C         140.1817  138.5505  160.1079 C.ar    1  UNL1        0.2679
      3 C         140.9825  138.4098  158.8474 C.ar    1  UNL1        0.0980
      4 C         142.4373  138.0514  158.9191 C.ar    1  UNL1        0.1453
      5 C         143.0913  137.8339  160.2514 C.ar    1  UNL1        0.0561
      6 C         142.2905  137.9746  161.5118 C.ar    1  UNL1        0.0860
      7 N         140.8357  138.3329  161.4401 N.ar    1  UNL1       -0.2729
      8 C         140.0349  138.4737  162.7007 C.ar    1  UNL1        0.0671
      9 C         139.9277  137.3204  163.6538 C.ar    1  UNL1        0.0207
     10 C         139.1270  137.4611  164.9143 C.ar    1  UNL1        0.0384
     11 C         138.4333  138.7552  165.2218 C.ar    1  UNL1        0.1387
     12 C         138.5405  139.9084  164.2686 C.ar    1  UNL1        0.0384
     13 C         139.3413  139.7677  163.0081 C.ar    1  UNL1        0.0207
     14 O         137.6326  138.8959  166.4823 O.3     1  UNL1       -0.4740
     15 C         138.2983  139.3517  167.7468 C.3     1  UNL1        0.2226
     16 C         139.6250  140.0491  167.6866 C.3     1  UNL1        0.1200
     17 N         139.8960  141.2236  168.5794 N.3     1  UNL1       -0.2696
     18 C         139.5017  141.3445  170.0216 C.3     1  UNL1        0.0722
     19 C         139.9710  142.6791  170.5202 C.3     1  UNL1        0.0188
     20 C         140.6554  143.3831  169.3861 C.3     1  UNL1        0.0188
     21 C         140.6090  142.4835  168.1867 C.3     1  UNL1        0.0722
     22 O         143.2381  137.9107  157.6586 O.3     1  UNL1       -0.4704
     23 C         142.6201  137.2850  156.4434 C.3     1  UNL1        0.2320
     24 C         142.5012  135.7929  156.3464 C.ar    1  UNL1        0.0213
     25 C         143.3510  134.9146  157.2162 C.ar    1  UNL1        0.0016
     26 C         143.2321  133.4224  157.1191 C.ar    1  UNL1        0.0294
     27 C         142.2634  132.8086  156.1523 C.ar    1  UNL1        0.1401
     28 F         142.1445  131.3165  156.0552 F       1  UNL1       -0.2042
     29 C         141.4136  133.6868  155.2825 C.ar    1  UNL1        0.0294
     30 C         141.5325  135.1789  155.3795 C.ar    1  UNL1        0.0016
@<TRIPOS>BOND
     1     1     2    2
     2     2     3   ar
     3     3     4   ar
     4     4    22    1
     5    22    23    1
     6    23    24    1
     7    24    25   ar
     8    25    26   ar
     9    26    27   ar
    10    27    28    1
    11    27    29   ar
    12    29    30   ar
    13     4     5   ar
    14     5     6   ar
    15     6     7   ar
    16     7     8    1
    17     8     9   ar
    18     9    10   ar
    19    10    11   ar
    20    11    14    1
    21    14    15    1
    22    15    16    1
    23    16    17    1
    24    17    18    1
    25    18    19    1
    26    19    20    1
    27    20    21    1
    28    11    12   ar
    29    12    13   ar
    30     7     2   ar
    31    13     8   ar
    32    30    24   ar
    33    21    17    1
@<TRIPOS>MOLECULE
*****
 30 33 0 0 0
SMALL
GASTEIGER

@<TRIPOS>ATOM
      1 O         140.1362  141.3270  161.3142 O.2     1  UNL1       -0.2665
      2 C         139.7709  140.1705  162.1968 C.ar    1  UNL1        0.2679
      3 C         139.1115  140.4169  163.5213 C.ar    1  UNL1        0.0980
      4 C         138.7461  139.2603  164.4039 C.ar    1  UNL1        0.1453
      5 C         139.0402  137.8574  163.9620 C.ar    1  UNL1        0.0561
      6 C         139.6997  137.6111  162.6375 C.ar    1  UNL1        0.0860
      7 N         140.0650  138.7676  161.7549 N.ar    1  UNL1       -0.2729
      8 C         140.7245  138.5212  160.4304 C.ar    1  UNL1        0.0671
      9 C         139.8948  138.4370  159.1836 C.ar    1  UNL1        0.0207
     10 C         140.5542  138.1906  157.8591 C.ar    1  UNL1        0.0384
     11 C         142.0434  138.0283  157.7813 C.ar    1  UNL1        0.1387
     12 C         142.8732  138.1125  159.0280 C.ar    1  UNL1        0.0384
     13 C         142.2137  138.3590  160.3526 C.ar    1  UNL1        0.0207
     14 O         142.7029  137.7819  156.4567 O.3     1  UNL1       -0.4740
     15 C         143.3467  136.4568  156.1744 C.3     1  UNL1        0.2226
     16 C         142.8018  135.2090  156.8036 C.3     1  UNL1        0.1200
     17 N         143.6440  133.9692  156.8622 N.3     1  UNL1       -0.2696
     18 C         143.9251  133.0394  155.7190 C.3     1  UNL1        0.0722
     19 C         144.8078  131.9370  156.2245 C.3     1  UNL1        0.0188
     20 C         145.0723  132.1854  157.6799 C.3     1  UNL1        0.0188
     21 C         144.3530  133.4413  158.0740 C.3     1  UNL1        0.0722
     22 O         138.0866  139.5068  165.7285 O.3     1  UNL1       -0.4704
     23 C         138.8451  139.2667  167.0002 C.3     1  UNL1        0.2320
     24 C         139.4323  140.4235  167.7530 C.ar    1  UNL1        0.0213
     25 C         139.3584  140.4588  169.2508 C.ar    1  UNL1        0.0016
     26 C         139.9457  141.6157  170.0036 C.ar    1  UNL1        0.0294
     27 C         140.6068  142.7373  169.2587 C.ar    1  UNL1        0.1401
     28 F         141.1940  143.8941  170.0116 F       1  UNL1       -0.2042
     29 C         140.6807  142.7020  167.7610 C.ar    1  UNL1        0.0294
     30 C         140.0935  141.5452  167.0081 C.ar    1  UNL1        0.0016
@<TRIPOS>BOND
     1     1     2    2
     2     2     3   ar
     3     3     4   ar
     4     4    22    1
     5    22    23    1
     6    23    24    1
     7    24    25   ar
     8    25    26   ar
     9    26    27   ar
    10    27    28    1
    11    27    29   ar
    12    29    30   ar
    13     4     5   ar
    14     5     6   ar
    15     6     7   ar
    16     7     8    1
    17     8     9   ar
    18     9    10   ar
    19    10    11   ar
    20    11    14    1
    21    14    15    1
    22    15    16    1
    23    16    17    1
    24    17    18    1
    25    18    19    1
    26    19    20    1
    27    20    21    1
    28    11    12   ar
    29    12    13   ar
    30     7     2   ar
    31    13     8   ar
    32    30    24   ar
    33    21    17    1
@<TRIPOS>MOLECULE
*****
 30 33 0 0 0
SMALL
GASTEIGER

@<TRIPOS>ATOM
      1 O         137.6275  144.2912  162.4595 O.2     1  UNL1       -0.2665
      2 C         138.1825  142.9076  162.6254 C.ar    1  UNL1        0.2679
      3 C         137.8186  142.0931  163.8313 C.ar    1  UNL1        0.0980
      4 C         138.3737  140.7095  163.9972 C.ar    1  UNL1        0.1453
      5 C         139.2926  140.1403  162.9573 C.ar    1  UNL1        0.0561
      6 C         139.6565  140.9548  161.7514 C.ar    1  UNL1        0.0860
      7 N         139.1015  142.3384  161.5854 N.ar    1  UNL1       -0.2729
      8 C         139.4654  143.1528  160.3795 C.ar    1  UNL1        0.0671
      9 C         138.8782  142.8149  159.0412 C.ar    1  UNL1        0.0207
     10 C         139.2421  143.6293  157.8352 C.ar    1  UNL1        0.0384
     11 C         140.1933  144.7817  157.9676 C.ar    1  UNL1        0.1387
     12 C         140.7804  145.1196  159.3058 C.ar    1  UNL1        0.0384
     13 C         140.4165  144.3052  160.5118 C.ar    1  UNL1        0.0207
     14 O         140.5571  145.5960  156.7616 O.3     1  UNL1       -0.4740
     15 C         139.5452  145.8256  155.6784 C.3     1  UNL1        0.2226
     16 C         139.5690  147.1000  154.8877 C.3     1  UNL1        0.1200
     17 N         139.1208  148.3839  155.5206 N.3     1  UNL1       -0.2696
     18 C         138.5930  148.5418  156.9159 C.3     1  UNL1        0.0722
     19 C         138.2677  149.9909  157.1270 C.3     1  UNL1        0.0188
     20 C         138.5944  150.7284  155.8624 C.3     1  UNL1        0.0188
     21 C         139.1217  149.7352  154.8696 C.3     1  UNL1        0.0722
     22 O         138.0097  139.8951  165.2032 O.3     1  UNL1       -0.4704
     23 C         139.0727  139.4808  166.1771 C.3     1  UNL1        0.2320
     24 C         139.5237  140.4327  167.2450 C.ar    1  UNL1        0.0213
     25 C         140.2650  141.6821  166.8716 C.ar    1  UNL1        0.0016
     26 C         140.7160  142.6340  167.9396 C.ar    1  UNL1        0.0294
     27 C         140.4257  142.3365  169.3809 C.ar    1  UNL1        0.1401
     28 F         140.8767  143.2883  170.4488 F       1  UNL1       -0.2042
     29 C         139.6844  141.0870  169.7542 C.ar    1  UNL1        0.0294
     30 C         139.2334  140.1351  168.6863 C.ar    1  UNL1        0.0016
@<TRIPOS>BOND
     1     1     2    2
     2     2     3   ar
     3     3     4   ar
     4     4    22    1
     5    22    23    1
     6    23    24    1
     7    24    25   ar
     8    25    26   ar
     9    26    27   ar
    10    27    28    1
    11    27    29   ar
    12    29    30   ar
    13     4     5   ar
    14     5     6   ar
    15     6     7   ar
    16     7     8    1
    17     8     9   ar
    18     9    10   ar
    19    10    11   ar
    20    11    14    1
    21    14    15    1
    22    15    16    1
    23    16    17    1
    24    17    18    1
    25    18    19    1
    26    19    20    1
    27    20    21    1
    28    11    12   ar
    29    12    13   ar
    30     7     2   ar
    31    13     8   ar
    32    30    24   ar
    33    21    17    1
@<TRIPOS>MOLECULE
*****
 30 33 0 0 0
SMALL
GASTEIGER

@<TRIPOS>ATOM
      1 O         142.6721  139.8387  165.3590 O.2     1  UNL1       -0.2665
      2 C         142.1372  139.8529  166.7603 C.ar    1  UNL1        0.2679
      3 C         142.9275  139.2274  167.8712 C.ar    1  UNL1        0.0980
      4 C         142.3926  139.2416  169.2725 C.ar    1  UNL1        0.1453
      5 C         141.0673  139.8813  169.5629 C.ar    1  UNL1        0.0561
      6 C         140.2770  140.5068  168.4520 C.ar    1  UNL1        0.0860
      7 N         140.8119  140.4926  167.0508 N.ar    1  UNL1       -0.2729
      8 C         140.0215  141.1181  165.9398 C.ar    1  UNL1        0.0671
      9 C         140.3937  142.4781  165.4281 C.ar    1  UNL1        0.0207
     10 C         139.6034  143.1036  164.3173 C.ar    1  UNL1        0.0384
     11 C         138.4407  142.3692  163.7181 C.ar    1  UNL1        0.1387
     12 C         138.0685  141.0092  164.2298 C.ar    1  UNL1        0.0384
     13 C         138.8589  140.3837  165.3407 C.ar    1  UNL1        0.0207
     14 O         137.6504  142.9947  162.6072 O.3     1  UNL1       -0.4740
     15 C         138.0289  142.7353  161.1791 C.3     1  UNL1        0.2226
     16 C         139.3018  142.0086  160.8607 C.3     1  UNL1        0.1200
     17 N         139.3958  140.5280  161.0824 N.3     1  UNL1       -0.2696
     18 C         138.3609  139.5118  160.6997 C.3     1  UNL1        0.0722
     19 C         138.8668  138.1594  161.1064 C.3     1  UNL1        0.0188
     20 C         140.2142  138.3399  161.7404 C.3     1  UNL1        0.0188
     21 C         140.5411  139.8037  161.7255 C.3     1  UNL1        0.0722
     22 O         143.1830  138.6161  170.3834 O.3     1  UNL1       -0.4704
     23 C         143.5963  137.1771  170.2918 C.3     1  UNL1        0.2320
     24 C         144.4707  136.5788  171.3535 C.ar    1  UNL1        0.0213
     25 C         144.5163  135.0908  171.5371 C.ar    1  UNL1        0.0016
     26 C         145.3908  134.4925  172.5989 C.ar    1  UNL1        0.0294
     27 C         146.2196  135.3822  173.4772 C.ar    1  UNL1        0.1401
     28 F         147.0940  134.7840  174.5390 F       1  UNL1       -0.2042
     29 C         146.1739  136.8703  173.2937 C.ar    1  UNL1        0.0294
     30 C         145.2995  137.4686  172.2319 C.ar    1  UNL1        0.0016
@<TRIPOS>BOND
     1     1     2    2
     2     2     3   ar
     3     3     4   ar
     4     4    22    1
     5    22    23    1
     6    23    24    1
     7    24    25   ar
     8    25    26   ar
     9    26    27   ar
    10    27    28    1
    11    27    29   ar
    12    29    30   ar
    13     4     5   ar
    14     5     6   ar
    15     6     7   ar
    16     7     8    1
    17     8     9   ar
    18     9    10   ar
    19    10    11   ar
    20    11    14    1
    21    14    15    1
    22    15    16    1
    23    16    17    1
    24    17    18    1
    25    18    19    1
    26    19    20    1
    27    20    21    1
    28    11    12   ar
    29    12    13   ar
    30     7     2   ar
    31    13     8   ar
    32    30    24   ar
    33    21    17    1
@<TRIPOS>MOLECULE
*****
 30 33 0 0 0
SMALL
GASTEIGER

@<TRIPOS>ATOM
      1 O         137.7545  144.6200  162.6118 O.2     1  UNL1       -0.2665
      2 C         139.0301  144.1269  163.2280 C.ar    1  UNL1        0.2679
      3 C         139.0990  143.8676  164.7037 C.ar    1  UNL1        0.0980
      4 C         140.3747  143.3745  165.3199 C.ar    1  UNL1        0.1453
      5 C         141.5814  143.1407  164.4602 C.ar    1  UNL1        0.0561
      6 C         141.5125  143.4000  162.9844 C.ar    1  UNL1        0.0860
      7 N         140.2369  143.8931  162.3683 N.ar    1  UNL1       -0.2729
      8 C         140.1680  144.1524  160.8924 C.ar    1  UNL1        0.0671
      9 C         139.4539  143.1867  159.9938 C.ar    1  UNL1        0.0207
     10 C         139.3851  143.4460  158.5180 C.ar    1  UNL1        0.0384
     11 C         140.0303  144.6710  157.9408 C.ar    1  UNL1        0.1387
     12 C         140.7445  145.6367  158.8394 C.ar    1  UNL1        0.0384
     13 C         140.8133  145.3773  160.3153 C.ar    1  UNL1        0.0207
     14 O         139.9615  144.9302  156.4650 O.3     1  UNL1       -0.4740
     15 C         140.0876  146.3308  155.9429 C.3     1  UNL1        0.2226
     16 C         138.8570  147.1190  155.6052 C.3     1  UNL1        0.1200
     17 N         138.9506  148.6007  155.3911 N.3     1  UNL1       -0.2696
     18 C         139.6346  149.2844  154.2444 C.3     1  UNL1        0.0722
     19 C         139.4834  150.7651  154.4307 C.3     1  UNL1        0.0188
     20 C         138.7060  150.9965  155.6925 C.3     1  UNL1        0.0188
     21 C         138.3767  149.6589  156.2860 C.3     1  UNL1        0.0722
     22 O         140.4435  143.1151  166.7957 O.3     1  UNL1       -0.4704
     23 C         140.6128  141.7140  167.3039 C.3     1  UNL1        0.2320
     24 C         140.1595  140.5534  166.4688 C.ar    1  UNL1        0.0213
     25 C         138.6946  140.2943  166.2771 C.ar    1  UNL1        0.0016
     26 C         138.2413  139.1336  165.4419 C.ar    1  UNL1        0.0294
     27 C         139.2529  138.2321  164.7986 C.ar    1  UNL1        0.1401
     28 F         138.7996  137.0715  163.9635 F       1  UNL1       -0.2042
     29 C         140.7178  138.4913  164.9904 C.ar    1  UNL1        0.0294
     30 C         141.1712  139.6519  165.8255 C.ar    1  UNL1        0.0016
@<TRIPOS>BOND
     1     1     2    2
     2     2     3   ar
     3     3     4   ar
     4     4    22    1
     5    22    23    1
     6    23    24    1
     7    24    25   ar
     8    25    26   ar
     9    26    27   ar
    10    27    28    1
    11    27    29   ar
    12    29    30   ar
    13     4     5   ar
    14     5     6   ar
    15     6     7   ar
    16     7     8    1
    17     8     9   ar
    18     9    10   ar
    19    10    11   ar
    20    11    14    1
    21    14    15    1
    22    15    16    1
    23    16    17    1
    24    17    18    1
    25    18    19    1
    26    19    20    1
    27    20    21    1
    28    11    12   ar
    29    12    13   ar
    30     7     2   ar
    31    13     8   ar
    32    30    24   ar
    33    21    17    1
@<TRIPOS>MOLECULE
*****
 30 33 0 0 0
SMALL
GASTEIGER

@<TRIPOS>ATOM
      1 O         139.4934  137.8238  161.8983 O.2     1  UNL1       -0.2665
      2 C         139.1657  139.2512  161.5739 C.ar    1  UNL1        0.2679
      3 C         138.2571  140.0353  162.4738 C.ar    1  UNL1        0.0980
      4 C         137.9294  141.4626  162.1494 C.ar    1  UNL1        0.1453
      5 C         138.5103  142.1059  160.9252 C.ar    1  UNL1        0.0561
      6 C         139.4188  141.3219  160.0253 C.ar    1  UNL1        0.0860
      7 N         139.7465  139.8945  160.3497 N.ar    1  UNL1       -0.2729
      8 C         140.6551  139.1104  159.4498 C.ar    1  UNL1        0.0671
      9 C         140.1167  138.4948  158.1924 C.ar    1  UNL1        0.0207
     10 C         141.0252  137.7107  157.2925 C.ar    1  UNL1        0.0384
     11 C         142.4722  137.5423  157.6500 C.ar    1  UNL1        0.1387
     12 C         143.0107  138.1580  158.9074 C.ar    1  UNL1        0.0384
     13 C         142.1021  138.9421  159.8073 C.ar    1  UNL1        0.0207
     14 O         143.3808  136.7583  156.7501 O.3     1  UNL1       -0.4740
     15 C         142.8014  135.8535  155.7034 C.3     1  UNL1        0.2226
     16 C         142.4387  134.4402  156.0512 C.3     1  UNL1        0.1200
     17 N         143.4977  133.4886  156.5235 N.3     1  UNL1       -0.2696
     18 C         144.1464  133.4920  157.8760 C.3     1  UNL1        0.0722
     19 C         145.1435  132.3720  157.9145 C.3     1  UNL1        0.0188
     20 C         145.1110  131.6764  156.5859 C.3     1  UNL1        0.0188
     21 C         144.0938  132.3665  155.7262 C.3     1  UNL1        0.0722
     22 O         137.0208  142.2467  163.0493 O.3     1  UNL1       -0.4704
     23 C         137.5925  143.0329  164.1917 C.3     1  UNL1        0.2320
     24 C         138.9652  143.6273  164.0804 C.ar    1  UNL1        0.0213
     25 C         140.1172  142.9950  164.8037 C.ar    1  UNL1        0.0016
     26 C         141.4899  143.5895  164.6924 C.ar    1  UNL1        0.0294
     27 C         141.7105  144.8162  163.8579 C.ar    1  UNL1        0.1401
     28 F         143.0832  145.4107  163.7467 F       1  UNL1       -0.2042
     29 C         140.5585  145.4486  163.1347 C.ar    1  UNL1        0.0294
     30 C         139.1859  144.8541  163.2460 C.ar    1  UNL1        0.0016
@<TRIPOS>BOND
     1     1     2    2
     2     2     3   ar
     3     3     4   ar
     4     4    22    1
     5    22    23    1
     6    23    24    1
     7    24    25   ar
     8    25    26   ar
     9    26    27   ar
    10    27    28    1
    11    27    29   ar
    12    29    30   ar
    13     4     5   ar
    14     5     6   ar
    15     6     7   ar
    16     7     8    1
    17     8     9   ar
    18     9    10   ar
    19    10    11   ar
    20    11    14    1
    21    14    15    1
    22    15    16    1
    23    16    17    1
    24    17    18    1
    25    18    19    1
    26    19    20    1
    27    20    21    1
    28    11    12   ar
    29    12    13   ar
    30     7     2   ar
    31    13     8   ar
    32    30    24   ar
    33    21    17    1
@<TRIPOS>MOLECULE
*****
 30 33 0 0 0
SMALL
GASTEIGER

@<TRIPOS>ATOM
      1 O         140.1698  141.5687  158.6694 O.2     1  UNL1       -0.2665
      2 C         139.4433  140.7604  159.7033 C.ar    1  UNL1        0.2679
      3 C         138.6003  141.4475  160.7363 C.ar    1  UNL1        0.0980
      4 C         137.8738  140.6392  161.7701 C.ar    1  UNL1        0.1453
      5 C         137.9904  139.1437  161.7710 C.ar    1  UNL1        0.0561
      6 C         138.8334  138.4566  160.7380 C.ar    1  UNL1        0.0860
      7 N         139.5598  139.2650  159.7041 N.ar    1  UNL1       -0.2729
      8 C         140.4029  138.5778  158.6711 C.ar    1  UNL1        0.0671
      9 C         139.8039  138.1887  157.3520 C.ar    1  UNL1        0.0207
     10 C         140.6469  137.5016  156.3190 C.ar    1  UNL1        0.0384
     11 C         142.0889  137.2034  156.6050 C.ar    1  UNL1        0.1387
     12 C         142.6879  137.5925  157.9240 C.ar    1  UNL1        0.0384
     13 C         141.8449  138.2797  158.9571 C.ar    1  UNL1        0.0207
     14 O         142.9319  136.5163  155.5720 O.3     1  UNL1       -0.4740
     15 C         142.4898  135.2042  154.9949 C.3     1  UNL1        0.2226
     16 C         142.2502  134.0305  155.8976 C.3     1  UNL1        0.1200
     17 N         143.4118  133.2493  156.4365 N.3     1  UNL1       -0.2696
     18 C         144.1191  132.1261  155.7378 C.3     1  UNL1        0.0722
     19 C         145.2145  131.6368  156.6382 C.3     1  UNL1        0.0188
     20 C         145.1842  132.4576  157.8933 C.3     1  UNL1        0.0188
     21 C         144.0701  133.4542  157.7687 C.3     1  UNL1        0.0722
     22 O         137.0308  141.3263  162.8032 O.3     1  UNL1       -0.4704
     23 C         137.6766  142.1964  163.8404 C.3     1  UNL1        0.2320
     24 C         138.4814  141.5765  164.9440 C.ar    1  UNL1        0.0213
     25 C         138.2112  140.1628  165.3663 C.ar    1  UNL1        0.0016
     26 C         139.0161  139.5428  166.4699 C.ar    1  UNL1        0.0294
     27 C         140.0913  140.3366  167.1510 C.ar    1  UNL1        0.1401
     28 F         140.8961  139.7166  168.2545 F       1  UNL1       -0.2042
     29 C         140.3615  141.7503  166.7287 C.ar    1  UNL1        0.0294
     30 C         139.5566  142.3702  165.6252 C.ar    1  UNL1        0.0016
@<TRIPOS>BOND
     1     1     2    2
     2     2     3   ar
     3     3     4   ar
     4     4    22    1
     5    22    23    1
     6    23    24    1
     7    24    25   ar
     8    25    26   ar
     9    26    27   ar
    10    27    28    1
    11    27    29   ar
    12    29    30   ar
    13     4     5   ar
    14     5     6   ar
    15     6     7   ar
    16     7     8    1
    17     8     9   ar
    18     9    10   ar
    19    10    11   ar
    20    11    14    1
    21    14    15    1
    22    15    16    1
    23    16    17    1
    24    17    18    1
    25    18    19    1
    26    19    20    1
    27    20    21    1
    28    11    12   ar
    29    12    13   ar
    30     7     2   ar
    31    13     8   ar
    32    30    24   ar
    33    21    17    1
@<TRIPOS>MOLECULE
*****
 30 33 0 0 0
SMALL
GASTEIGER

@<TRIPOS>ATOM
      1 O         140.9664  136.8706  163.1958 O.2     1  UNL1       -0.2665
      2 C         141.9284  137.8861  163.7372 C.ar    1  UNL1        0.2679
      3 C         142.2649  137.8958  165.1989 C.ar    1  UNL1        0.0980
      4 C         143.2270  138.9114  165.7403 C.ar    1  UNL1        0.1453
      5 C         143.8526  139.9171  164.8200 C.ar    1  UNL1        0.0561
      6 C         143.5161  139.9074  163.3583 C.ar    1  UNL1        0.0860
      7 N         142.5540  138.8919  162.8169 N.ar    1  UNL1       -0.2729
      8 C         142.2175  138.8822  161.3551 C.ar    1  UNL1        0.0671
      9 C         140.8972  139.4175  160.8859 C.ar    1  UNL1        0.0207
     10 C         140.5607  139.4078  159.4242 C.ar    1  UNL1        0.0384
     11 C         141.5445  138.8628  158.4316 C.ar    1  UNL1        0.1387
     12 C         142.8648  138.3274  158.9008 C.ar    1  UNL1        0.0384
     13 C         143.2013  138.3372  160.3626 C.ar    1  UNL1        0.0207
     14 O         141.2080  138.8531  156.9699 O.3     1  UNL1       -0.4740
     15 C         141.7961  137.8055  156.0718 C.3     1  UNL1        0.2226
     16 C         141.0832  136.5006  155.8743 C.3     1  UNL1        0.1200
     17 N         141.8228  135.2076  156.0506 N.3     1  UNL1       -0.2696
     18 C         143.0125  134.9862  156.9370 C.3     1  UNL1        0.0722
     19 C         143.4275  133.5507  156.8057 C.3     1  UNL1        0.0188
     20 C         142.4945  132.8850  155.8380 C.3     1  UNL1        0.0188
     21 C         141.5027  133.9091  155.3714 C.3     1  UNL1        0.0722
     22 O         143.5635  138.9211  167.2021 O.3     1  UNL1       -0.4704
     23 C         142.4738  139.0739  168.2215 C.3     1  UNL1        0.2320
     24 C         142.0564  140.4417  168.6738 C.ar    1  UNL1        0.0213
     25 C         140.6115  140.8411  168.6199 C.ar    1  UNL1        0.0016
     26 C         140.1941  142.2091  169.0722 C.ar    1  UNL1        0.0294
     27 C         141.2215  143.1775  169.5785 C.ar    1  UNL1        0.1401
     28 F         140.8041  144.5454  170.0309 F       1  UNL1       -0.2042
     29 C         142.6664  142.7782  169.6325 C.ar    1  UNL1        0.0294
     30 C         143.0838  141.4103  169.1802 C.ar    1  UNL1        0.0016
@<TRIPOS>BOND
     1     1     2    2
     2     2     3   ar
     3     3     4   ar
     4     4    22    1
     5    22    23    1
     6    23    24    1
     7    24    25   ar
     8    25    26   ar
     9    26    27   ar
    10    27    28    1
    11    27    29   ar
    12    29    30   ar
    13     4     5   ar
    14     5     6   ar
    15     6     7   ar
    16     7     8    1
    17     8     9   ar
    18     9    10   ar
    19    10    11   ar
    20    11    14    1
    21    14    15    1
    22    15    16    1
    23    16    17    1
    24    17    18    1
    25    18    19    1
    26    19    20    1
    27    20    21    1
    28    11    12   ar
    29    12    13   ar
    30     7     2   ar
    31    13     8   ar
    32    30    24   ar
    33    21    17    1
@<TRIPOS>MOLECULE
*****
 30 33 0 0 0
SMALL
GASTEIGER

@<TRIPOS>ATOM
      1 O         138.5528  139.1690  156.8510 O.2     1  UNL1       -0.2665
      2 C         139.9826  138.8364  157.1596 C.ar    1  UNL1        0.2679
      3 C         140.8672  138.2654  156.0913 C.ar    1  UNL1        0.0980
      4 C         142.2969  137.9329  156.3999 C.ar    1  UNL1        0.1453
      5 C         142.8421  138.1714  157.7768 C.ar    1  UNL1        0.0561
      6 C         141.9574  138.7424  158.8451 C.ar    1  UNL1        0.0860
      7 N         140.5277  139.0749  158.5365 N.ar    1  UNL1       -0.2729
      8 C         139.6430  139.6460  159.6049 C.ar    1  UNL1        0.0671
      9 C         139.4755  141.1317  159.7250 C.ar    1  UNL1        0.0207
     10 C         138.5909  141.7028  160.7933 C.ar    1  UNL1        0.0384
     11 C         137.8738  140.7881  161.7416 C.ar    1  UNL1        0.1387
     12 C         138.0413  139.3023  161.6215 C.ar    1  UNL1        0.0384
     13 C         138.9260  138.7313  160.5531 C.ar    1  UNL1        0.0207
     14 O         136.9892  141.3592  162.8099 O.3     1  UNL1       -0.4740
     15 C         137.5263  142.3924  163.7554 C.3     1  UNL1        0.2226
     16 C         138.5088  141.9981  164.8180 C.3     1  UNL1        0.1200
     17 N         138.9202  140.5631  164.9639 N.3     1  UNL1       -0.2696
     18 C         140.2235  139.9697  164.5174 C.3     1  UNL1        0.0722
     19 C         140.2092  138.5092  164.8595 C.3     1  UNL1        0.0188
     20 C         138.8971  138.2000  165.5174 C.3     1  UNL1        0.0188
     21 C         138.1005  139.4694  165.5819 C.3     1  UNL1        0.0722
     22 O         143.1816  137.3618  155.3315 O.3     1  UNL1       -0.4704
     23 C         144.0534  136.1789  155.6326 C.3     1  UNL1        0.2320
     24 C         143.4566  134.8042  155.6961 C.ar    1  UNL1        0.0213
     25 C         142.4759  134.3633  154.6502 C.ar    1  UNL1        0.0016
     26 C         141.8791  132.9885  154.7138 C.ar    1  UNL1        0.0294
     27 C         142.2630  132.0548  155.8231 C.ar    1  UNL1        0.1401
     28 F         141.6662  130.6801  155.8866 F       1  UNL1       -0.2042
     29 C         143.2437  132.4957  156.8690 C.ar    1  UNL1        0.0294
     30 C         143.8404  133.8704  156.8055 C.ar    1  UNL1        0.0016
@<TRIPOS>BOND
     1     1     2    2
     2     2     3   ar
     3     3     4   ar
     4     4    22    1
     5    22    23    1
     6    23    24    1
     7    24    25   ar
     8    25    26   ar
     9    26    27   ar
    10    27    28    1
    11    27    29   ar
    12    29    30   ar
    13     4     5   ar
    14     5     6   ar
    15     6     7   ar
    16     7     8    1
    17     8     9   ar
    18     9    10   ar
    19    10    11   ar
    20    11    14    1
    21    14    15    1
    22    15    16    1
    23    16    17    1
    24    17    18    1
    25    18    19    1
    26    19    20    1
    27    20    21    1
    28    11    12   ar
    29    12    13   ar
    30     7     2   ar
    31    13     8   ar
    32    30    24   ar
    33    21    17    1
