@<TRIPOS>MOLECULE
*****
 38 42 0 0 0
SMALL
GASTEIGER

@<TRIPOS>ATOM
      1 C         141.9042  137.6975  164.8754 C.3     1  UNL1        0.0017
      2 C         140.9496  137.6651  163.7189 C.3     1  UNL1        0.0001
      3 C         140.4371  138.9475  163.1333 C.3     1  UNL1        0.0000
      4 C         139.5029  138.9157  161.9602 C.3     1  UNL1        0.0014
      5 C         138.0679  139.3171  162.1331 C.3     1  UNL1        0.0171
      6 C         137.7213  140.7386  162.4635 C.3     1  UNL1        0.0685
      7 N         137.3512  141.1132  163.8680 N.3     1  UNL1       -0.2982
      8 H         137.1897  142.1204  163.8712 H       1  UNL1        0.1232
      9 O         143.2565  140.5572  169.7475 O.2     1  UNL1       -0.2726
     10 C         142.3110  140.8478  168.6198 C.2     1  UNL1        0.2497
     11 C         142.5436  142.0350  167.7331 C.3     1  UNL1        0.1129
     12 C         141.5982  142.3255  166.6054 C.2     1  UNL1       -0.0198
     13 C         140.4202  141.4289  166.3644 C.2     1  UNL1       -0.0134
     14 C         140.1875  140.2416  167.2511 C.2     1  UNL1        0.0468
     15 N         141.1329  139.9510  168.3788 N.am    1  UNL1       -0.1836
     16 C         139.0094  139.3449  167.0101 C.3     1  UNL1        0.0443
     17 C         138.0640  139.6354  165.8824 C.3     1  UNL1        0.0221
     18 C         138.2966  140.8227  164.9957 C.3     1  UNL1        0.0588
     19 C         139.4747  141.7194  165.2367 C.3     1  UNL1        0.0427
     20 C         142.7335  138.9213  165.1294 C.3     1  UNL1        0.0212
     21 C         144.2288  138.8464  165.0377 C.3     1  UNL1        0.0870
     22 N         144.9458  139.5248  163.9082 N.pl3   1  UNL1       -0.3328
     23 H         145.9070  139.3643  163.7683 H       1  UNL1        0.1468
     24 C         144.1984  140.4477  162.9920 C.ar    1  UNL1        0.0431
     25 C         144.0510  141.8981  163.3454 C.ar    1  UNL1        0.0045
     26 C         143.3035  142.8210  162.4291 C.ar    1  UNL1        0.0561
     27 N         142.7034  142.2936  161.1596 N.ar    1  UNL1       -0.2499
     28 C         142.8508  140.8433  160.8063 C.ar    1  UNL1        0.0829
     29 C         142.2506  140.3158  159.5367 C.ar    1  UNL1        0.0305
     30 C         142.3980  138.8655  159.1834 C.ar    1  UNL1        0.0592
     31 CL        141.7979  138.3381  157.9139 Cl      1  UNL1       -0.0822
     32 C         143.1455  137.9426  160.0996 C.ar    1  UNL1        0.0115
     33 C         143.7456  138.4700  161.3691 C.ar    1  UNL1        0.0036
     34 C         143.5982  139.9203  161.7225 C.ar    1  UNL1        0.0305
     35 C         143.1561  144.2713  162.7824 C.3     1  UNL1        0.0455
     36 C         143.7562  144.7987  164.0519 C.3     1  UNL1        0.0066
     37 C         144.5037  143.8757  164.9681 C.3     1  UNL1        0.0052
     38 C         144.6511  142.4254  164.6149 C.3     1  UNL1        0.0288
@<TRIPOS>BOND
     1     9    10    2
     2    10    11    1
     3    11    12    1
     4    12    13    2
     5    13    14    1
     6    14    15    2
     7    14    16    1
     8    16    17    1
     9    17    18    1
    10    18     7    1
    11     7     6    1
    12     6     5    1
    13     5     4    1
    14     4     3    1
    15     3     2    1
    16     2     1    1
    17     1    20    1
    18    20    21    1
    19    21    22    1
    20    22    24    1
    21    24    25   ar
    22    25    26   ar
    23    26    27   ar
    24    27    28   ar
    25    28    29   ar
    26    29    30   ar
    27    30    31    1
    28    30    32   ar
    29    32    33   ar
    30    33    34   ar
    31    26    35    1
    32    35    36    1
    33    36    37    1
    34    37    38    1
    35    18    19    1
    36    15    10    1
    37    34    24   ar
    38    19    13    1
    39    38    25    1
    40    34    28   ar
    41     7     8    1
    42    22    23    1
@<TRIPOS>MOLECULE
*****
 38 42 0 0 0
SMALL
GASTEIGER

@<TRIPOS>ATOM
      1 C         138.1409  140.1096  163.2470 C.3     1  UNL1        0.0017
      2 C         138.8536  138.7948  163.1314 C.3     1  UNL1        0.0001
      3 C         138.9677  137.8959  164.3267 C.3     1  UNL1        0.0000
      4 C         140.2998  137.3219  164.7090 C.3     1  UNL1        0.0014
      5 C         141.4157  138.2318  165.1296 C.3     1  UNL1        0.0171
      6 C         142.6751  138.2990  164.3176 C.3     1  UNL1        0.0685
      7 N         143.5142  139.5422  164.3365 N.3     1  UNL1       -0.2982
      8 H         143.2745  140.0463  165.1902 H       1  UNL1        0.1232
      9 O         141.6955  144.9316  158.2211 O.2     1  UNL1       -0.2726
     10 C         141.7905  143.9455  159.3474 C.2     1  UNL1        0.2497
     11 C         140.5419  143.4182  159.9900 C.3     1  UNL1        0.1129
     12 C         140.6369  142.4321  161.1163 C.2     1  UNL1       -0.0198
     13 C         141.9805  141.9733  161.6001 C.2     1  UNL1       -0.0134
     14 C         143.2292  142.5005  160.9575 C.2     1  UNL1        0.0468
     15 N         143.1342  143.4866  159.8312 N.am    1  UNL1       -0.1836
     16 C         144.5729  142.0416  161.4413 C.3     1  UNL1        0.0443
     17 C         144.6678  141.0555  162.5676 C.3     1  UNL1        0.0221
     18 C         143.4192  140.5283  163.2101 C.3     1  UNL1        0.0588
     19 C         142.0755  140.9872  162.7264 C.3     1  UNL1        0.0427
     20 C         138.2100  140.8902  164.5260 C.3     1  UNL1        0.0212
     21 C         138.3564  142.3825  164.4869 C.3     1  UNL1        0.0870
     22 N         139.0724  143.0952  165.5957 N.pl3   1  UNL1       -0.3328
     23 H         138.5842  143.7286  166.1698 H       1  UNL1        0.1468
     24 C         140.5324  142.8428  165.8297 C.ar    1  UNL1        0.0431
     25 C         141.5601  143.6001  165.0419 C.ar    1  UNL1        0.0045
     26 C         143.0201  143.3476  165.2759 C.ar    1  UNL1        0.0561
     27 N         143.4524  142.3380  166.2976 N.ar    1  UNL1       -0.2499
     28 C         142.4247  141.5808  167.0853 C.ar    1  UNL1        0.0829
     29 C         142.8570  140.5711  168.1070 C.ar    1  UNL1        0.0305
     30 C         141.8293  139.8140  168.8946 C.ar    1  UNL1        0.0592
     31 CL        142.2616  138.8044  169.9163 Cl      1  UNL1       -0.0822
     32 C         140.3693  140.0664  168.6607 C.ar    1  UNL1        0.0115
     33 C         139.9370  141.0760  167.6390 C.ar    1  UNL1        0.0036
     34 C         140.9647  141.8332  166.8513 C.ar    1  UNL1        0.0305
     35 C         144.0478  144.1048  164.4882 C.3     1  UNL1        0.0455
     36 C         143.6155  145.1144  163.4666 C.3     1  UNL1        0.0066
     37 C         142.1555  145.3668  163.2326 C.3     1  UNL1        0.0052
     38 C         141.1279  144.6097  164.0203 C.3     1  UNL1        0.0288
@<TRIPOS>BOND
     1     9    10    2
     2    10    11    1
     3    11    12    1
     4    12    13    2
     5    13    14    1
     6    14    15    2
     7    14    16    1
     8    16    17    1
     9    17    18    1
    10    18     7    1
    11     7     6    1
    12     6     5    1
    13     5     4    1
    14     4     3    1
    15     3     2    1
    16     2     1    1
    17     1    20    1
    18    20    21    1
    19    21    22    1
    20    22    24    1
    21    24    25   ar
    22    25    26   ar
    23    26    27   ar
    24    27    28   ar
    25    28    29   ar
    26    29    30   ar
    27    30    31    1
    28    30    32   ar
    29    32    33   ar
    30    33    34   ar
    31    26    35    1
    32    35    36    1
    33    36    37    1
    34    37    38    1
    35    18    19    1
    36    15    10    1
    37    34    24   ar
    38    19    13    1
    39    38    25    1
    40    34    28   ar
    41     7     8    1
    42    22    23    1
@<TRIPOS>MOLECULE
*****
 38 42 0 0 0
SMALL
GASTEIGER

@<TRIPOS>ATOM
      1 C         142.4986  145.0896  163.8403 C.3     1  UNL1        0.0017
      2 C         143.9454  144.7094  163.7301 C.3     1  UNL1        0.0001
      3 C         144.4127  143.3800  164.2441 C.3     1  UNL1        0.0000
      4 C         144.6495  142.2477  163.2892 C.3     1  UNL1        0.0014
      5 C         145.3773  141.0191  163.7484 C.3     1  UNL1        0.0171
      6 C         144.6162  139.8828  164.3644 C.3     1  UNL1        0.0685
      7 N         143.1650  140.0495  164.7051 N.3     1  UNL1       -0.2982
      8 H         142.8315  140.8606  164.1841 H       1  UNL1        0.1232
      9 O         140.2961  142.2711  172.2273 O.2     1  UNL1       -0.2726
     10 C         140.7134  142.0707  170.8005 C.2     1  UNL1        0.2497
     11 C         140.3480  143.0895  169.7621 C.3     1  UNL1        0.1129
     12 C         140.7653  142.8891  168.3353 C.2     1  UNL1       -0.0198
     13 C         141.5478  141.6698  167.9469 C.2     1  UNL1       -0.0134
     14 C         141.9132  140.6509  168.9854 C.2     1  UNL1        0.0468
     15 N         141.4960  140.8513  170.4122 N.am    1  UNL1       -0.1836
     16 C         142.6958  139.4316  168.5971 C.3     1  UNL1        0.0443
     17 C         143.1131  139.2311  167.1703 C.3     1  UNL1        0.0221
     18 C         142.7477  140.2500  166.1319 C.3     1  UNL1        0.0588
     19 C         141.9651  141.4694  166.5202 C.3     1  UNL1        0.0427
     20 C         141.4990  144.0962  164.3540 C.3     1  UNL1        0.0212
     21 C         140.0476  144.2436  164.0049 C.3     1  UNL1        0.0870
     22 N         139.3896  143.2473  163.0969 N.pl3   1  UNL1       -0.3328
     23 H         138.5575  143.4839  162.6271 H       1  UNL1        0.1468
     24 C         139.9996  141.8904  162.9048 C.ar    1  UNL1        0.0431
     25 C         139.5792  140.7482  163.7815 C.ar    1  UNL1        0.0045
     26 C         140.1892  139.3913  163.5894 C.ar    1  UNL1        0.0561
     27 N         141.2196  139.1768  162.5205 N.ar    1  UNL1       -0.2499
     28 C         141.6399  140.3190  161.6439 C.ar    1  UNL1        0.0829
     29 C         142.6703  140.1044  160.5750 C.ar    1  UNL1        0.0305
     30 C         143.0906  141.2467  159.6984 C.ar    1  UNL1        0.0592
     31 CL        144.1210  141.0321  158.6296 Cl      1  UNL1       -0.0822
     32 C         142.4807  142.6035  159.8905 C.ar    1  UNL1        0.0115
     33 C         141.4504  142.8181  160.9593 C.ar    1  UNL1        0.0036
     34 C         141.0299  141.6758  161.8360 C.ar    1  UNL1        0.0305
     35 C         139.7688  138.2491  164.4660 C.3     1  UNL1        0.0455
     36 C         138.7385  138.4637  165.5348 C.3     1  UNL1        0.0066
     37 C         138.1285  139.8205  165.7269 C.3     1  UNL1        0.0052
     38 C         138.5489  140.9628  164.8503 C.3     1  UNL1        0.0288
@<TRIPOS>BOND
     1     9    10    2
     2    10    11    1
     3    11    12    1
     4    12    13    2
     5    13    14    1
     6    14    15    2
     7    14    16    1
     8    16    17    1
     9    17    18    1
    10    18     7    1
    11     7     6    1
    12     6     5    1
    13     5     4    1
    14     4     3    1
    15     3     2    1
    16     2     1    1
    17     1    20    1
    18    20    21    1
    19    21    22    1
    20    22    24    1
    21    24    25   ar
    22    25    26   ar
    23    26    27   ar
    24    27    28   ar
    25    28    29   ar
    26    29    30   ar
    27    30    31    1
    28    30    32   ar
    29    32    33   ar
    30    33    34   ar
    31    26    35    1
    32    35    36    1
    33    36    37    1
    34    37    38    1
    35    18    19    1
    36    15    10    1
    37    34    24   ar
    38    19    13    1
    39    38    25    1
    40    34    28   ar
    41     7     8    1
    42    22    23    1
@<TRIPOS>MOLECULE
*****
 38 42 0 0 0
SMALL
GASTEIGER

@<TRIPOS>ATOM
      1 C         138.4290  140.8719  161.9552 C.3     1  UNL1        0.0017
      2 C         137.3180  141.3626  162.8354 C.3     1  UNL1        0.0001
      3 C         137.5950  142.3947  163.8879 C.3     1  UNL1        0.0000
      4 C         138.7148  142.1883  164.8644 C.3     1  UNL1        0.0014
      5 C         139.5739  143.3469  165.2763 C.3     1  UNL1        0.0171
      6 C         139.1726  144.7453  164.9110 C.3     1  UNL1        0.0685
      7 N         139.9015  145.4743  163.8214 N.3     1  UNL1       -0.2982
      8 H         139.1924  145.8358  163.1835 H       1  UNL1        0.1232
      9 O         144.4991  140.9833  158.4881 O.2     1  UNL1       -0.2726
     10 C         143.4888  141.7065  159.3287 C.2     1  UNL1        0.2497
     11 C         142.0251  141.5544  159.0386 C.3     1  UNL1        0.1129
     12 C         141.0148  142.2775  159.8791 C.2     1  UNL1       -0.0198
     13 C         141.4684  143.1527  161.0097 C.2     1  UNL1       -0.0134
     14 C         142.9322  143.3049  161.2998 C.2     1  UNL1        0.0468
     15 N         143.9425  142.5817  160.4593 N.am    1  UNL1       -0.1836
     16 C         143.3858  144.1801  162.4304 C.3     1  UNL1        0.0443
     17 C         142.3755  144.9032  163.2709 C.3     1  UNL1        0.0221
     18 C         140.9117  144.7512  162.9809 C.3     1  UNL1        0.0588
     19 C         140.4581  143.8759  161.8502 C.3     1  UNL1        0.0427
     20 C         138.2775  139.5821  161.2047 C.3     1  UNL1        0.0212
     21 C         137.9120  138.3259  161.9385 C.3     1  UNL1        0.0870
     22 N         138.9789  137.5102  162.6066 N.pl3   1  UNL1       -0.3328
     23 H         138.9504  136.5273  162.5574 H       1  UNL1        0.1468
     24 C         140.0893  138.1920  163.3498 C.ar    1  UNL1        0.0431
     25 C         141.4259  138.3790  162.6950 C.ar    1  UNL1        0.0045
     26 C         142.5362  139.0608  163.4382 C.ar    1  UNL1        0.0561
     27 N         142.3099  139.5557  164.8361 N.ar    1  UNL1       -0.2499
     28 C         140.9734  139.3686  165.4907 C.ar    1  UNL1        0.0829
     29 C         140.7471  139.8634  166.8886 C.ar    1  UNL1        0.0305
     30 C         139.4106  139.6764  167.5433 C.ar    1  UNL1        0.0592
     31 CL        139.1844  140.1712  168.9411 Cl      1  UNL1       -0.0822
     32 C         138.3003  138.9946  166.8002 C.ar    1  UNL1        0.0115
     33 C         138.5265  138.4998  165.4023 C.ar    1  UNL1        0.0036
     34 C         139.8631  138.6868  164.7476 C.ar    1  UNL1        0.0305
     35 C         143.8727  139.2479  162.7835 C.3     1  UNL1        0.0455
     36 C         144.0989  138.7531  161.3857 C.3     1  UNL1        0.0066
     37 C         142.9886  138.0712  160.6425 C.3     1  UNL1        0.0052
     38 C         141.6520  137.8842  161.2972 C.3     1  UNL1        0.0288
@<TRIPOS>BOND
     1     9    10    2
     2    10    11    1
     3    11    12    1
     4    12    13    2
     5    13    14    1
     6    14    15    2
     7    14    16    1
     8    16    17    1
     9    17    18    1
    10    18     7    1
    11     7     6    1
    12     6     5    1
    13     5     4    1
    14     4     3    1
    15     3     2    1
    16     2     1    1
    17     1    20    1
    18    20    21    1
    19    21    22    1
    20    22    24    1
    21    24    25   ar
    22    25    26   ar
    23    26    27   ar
    24    27    28   ar
    25    28    29   ar
    26    29    30   ar
    27    30    31    1
    28    30    32   ar
    29    32    33   ar
    30    33    34   ar
    31    26    35    1
    32    35    36    1
    33    36    37    1
    34    37    38    1
    35    18    19    1
    36    15    10    1
    37    34    24   ar
    38    19    13    1
    39    38    25    1
    40    34    28   ar
    41     7     8    1
    42    22    23    1
@<TRIPOS>MOLECULE
*****
 38 42 0 0 0
SMALL
GASTEIGER

@<TRIPOS>ATOM
      1 C         139.8108  143.5311  165.2747 C.3     1  UNL1        0.0017
      2 C         139.7295  144.6282  164.2550 C.3     1  UNL1        0.0001
      3 C         140.9854  145.2027  163.6698 C.3     1  UNL1        0.0000
      4 C         142.0733  144.2902  163.1862 C.3     1  UNL1        0.0014
      5 C         143.4538  144.3974  163.7632 C.3     1  UNL1        0.0171
      6 C         144.2186  143.1556  164.1140 C.3     1  UNL1        0.0685
      7 N         144.3739  142.7509  165.5499 N.3     1  UNL1       -0.2982
      8 H         145.1790  142.1262  165.5943 H       1  UNL1        0.1232
      9 O         138.1540  139.8951  170.3361 O.2     1  UNL1       -0.2726
     10 C         139.2792  140.5878  169.6261 C.2     1  UNL1        0.2497
     11 C         139.8108  141.8879  170.1525 C.3     1  UNL1        0.1129
     12 C         140.9360  142.5805  169.4425 C.2     1  UNL1       -0.0198
     13 C         141.5297  141.9731  168.2062 C.2     1  UNL1       -0.0134
     14 C         140.9982  140.6729  167.6798 C.2     1  UNL1        0.0468
     15 N         139.8729  139.9802  168.3898 N.am    1  UNL1       -0.1836
     16 C         141.5918  140.0654  166.4435 C.3     1  UNL1        0.0443
     17 C         142.7171  140.7581  165.7335 C.3     1  UNL1        0.0221
     18 C         143.2487  142.0582  166.2599 C.3     1  UNL1        0.0588
     19 C         142.6550  142.6658  167.4962 C.3     1  UNL1        0.0427
     20 C         138.8516  142.3794  165.2153 C.3     1  UNL1        0.0212
     21 C         137.7854  142.3450  164.1608 C.3     1  UNL1        0.0870
     22 N         137.8987  141.3888  163.0106 N.pl3   1  UNL1       -0.3328
     23 H         137.0871  141.0715  162.5525 H       1  UNL1        0.1468
     24 C         139.2485  140.9160  162.5585 C.ar    1  UNL1        0.0431
     25 C         139.8219  139.6449  163.1114 C.ar    1  UNL1        0.0045
     26 C         141.1718  139.1722  162.6593 C.ar    1  UNL1        0.0561
     27 N         141.9482  139.9705  161.6543 N.ar    1  UNL1       -0.2499
     28 C         141.3748  141.2415  161.1016 C.ar    1  UNL1        0.0829
     29 C         142.1513  142.0399  160.0966 C.ar    1  UNL1        0.0305
     30 C         141.5779  143.3109  159.5438 C.ar    1  UNL1        0.0592
     31 CL        142.3543  144.1092  158.5390 Cl      1  UNL1       -0.0822
     32 C         140.2280  143.7837  159.9959 C.ar    1  UNL1        0.0115
     33 C         139.4516  142.9854  161.0008 C.ar    1  UNL1        0.0036
     34 C         140.0250  141.7143  161.5537 C.ar    1  UNL1        0.0305
     35 C         141.7452  137.9011  163.2121 C.3     1  UNL1        0.0455
     36 C         140.9687  137.1028  164.2169 C.3     1  UNL1        0.0066
     37 C         139.6189  137.5756  164.6690 C.3     1  UNL1        0.0052
     38 C         139.0455  138.8466  164.1163 C.3     1  UNL1        0.0288
@<TRIPOS>BOND
     1     9    10    2
     2    10    11    1
     3    11    12    1
     4    12    13    2
     5    13    14    1
     6    14    15    2
     7    14    16    1
     8    16    17    1
     9    17    18    1
    10    18     7    1
    11     7     6    1
    12     6     5    1
    13     5     4    1
    14     4     3    1
    15     3     2    1
    16     2     1    1
    17     1    20    1
    18    20    21    1
    19    21    22    1
    20    22    24    1
    21    24    25   ar
    22    25    26   ar
    23    26    27   ar
    24    27    28   ar
    25    28    29   ar
    26    29    30   ar
    27    30    31    1
    28    30    32   ar
    29    32    33   ar
    30    33    34   ar
    31    26    35    1
    32    35    36    1
    33    36    37    1
    34    37    38    1
    35    18    19    1
    36    15    10    1
    37    34    24   ar
    38    19    13    1
    39    38    25    1
    40    34    28   ar
    41     7     8    1
    42    22    23    1
@<TRIPOS>MOLECULE
*****
 38 42 0 0 0
SMALL
GASTEIGER

@<TRIPOS>ATOM
      1 C         143.2498  139.2499  163.5955 C.3     1  UNL1        0.0017
      2 C         144.2802  140.1423  164.2216 C.3     1  UNL1        0.0001
      3 C         143.8820  141.4839  164.7616 C.3     1  UNL1        0.0000
      4 C         144.6484  142.7102  164.3633 C.3     1  UNL1        0.0014
      5 C         144.2023  144.0610  164.8395 C.3     1  UNL1        0.0171
      6 C         143.3934  144.9449  163.9370 C.3     1  UNL1        0.0685
      7 N         143.4253  144.7313  162.4527 N.3     1  UNL1       -0.2982
      8 H         143.5601  145.6480  162.0262 H       1  UNL1        0.1232
      9 O         137.4339  140.0798  158.9574 O.2     1  UNL1       -0.2726
     10 C         138.6052  140.7114  159.6496 C.2     1  UNL1        0.2497
     11 C         139.6416  139.8495  160.3075 C.3     1  UNL1        0.1129
     12 C         140.8129  140.4811  160.9998 C.2     1  UNL1       -0.0198
     13 C         140.9478  141.9745  161.0340 C.2     1  UNL1       -0.0134
     14 C         139.9114  142.8365  160.3761 C.2     1  UNL1        0.0468
     15 N         138.7401  142.2050  159.6839 N.am    1  UNL1       -0.1836
     16 C         140.0463  144.3300  160.4104 C.3     1  UNL1        0.0443
     17 C         141.2176  144.9616  161.1026 C.3     1  UNL1        0.0221
     18 C         142.2540  144.0997  161.7605 C.3     1  UNL1        0.0588
     19 C         142.1191  142.6061  161.7262 C.3     1  UNL1        0.0427
     20 C         142.4810  138.2814  164.4445 C.3     1  UNL1        0.0212
     21 C         140.9941  138.1620  164.2869 C.3     1  UNL1        0.0870
     22 N         140.0808  138.7387  165.3278 N.pl3   1  UNL1       -0.3328
     23 H         139.4475  138.1551  165.8049 H       1  UNL1        0.1468
     24 C         140.1325  140.2045  165.6419 C.ar    1  UNL1        0.0431
     25 C         139.2784  141.1672  164.8712 C.ar    1  UNL1        0.0045
     26 C         139.3301  142.6331  165.1853 C.ar    1  UNL1        0.0561
     27 N         140.2359  143.1362  166.2700 N.ar    1  UNL1       -0.2499
     28 C         141.0899  142.1735  167.0406 C.ar    1  UNL1        0.0829
     29 C         141.9956  142.6766  168.1254 C.ar    1  UNL1        0.0305
     30 C         142.8496  141.7139  168.8960 C.ar    1  UNL1        0.0592
     31 CL        143.7552  142.2171  169.9807 Cl      1  UNL1       -0.0822
     32 C         142.7979  140.2481  168.5819 C.ar    1  UNL1        0.0115
     33 C         141.8922  139.7449  167.4972 C.ar    1  UNL1        0.0036
     34 C         141.0382  140.7077  166.7266 C.ar    1  UNL1        0.0305
     35 C         138.4762  143.5958  164.4147 C.3     1  UNL1        0.0455
     36 C         137.5705  143.0926  163.3300 C.3     1  UNL1        0.0066
     37 C         137.5188  141.6268  163.0159 C.3     1  UNL1        0.0052
     38 C         138.3728  140.6641  163.7865 C.3     1  UNL1        0.0288
@<TRIPOS>BOND
     1     9    10    2
     2    10    11    1
     3    11    12    1
     4    12    13    2
     5    13    14    1
     6    14    15    2
     7    14    16    1
     8    16    17    1
     9    17    18    1
    10    18     7    1
    11     7     6    1
    12     6     5    1
    13     5     4    1
    14     4     3    1
    15     3     2    1
    16     2     1    1
    17     1    20    1
    18    20    21    1
    19    21    22    1
    20    22    24    1
    21    24    25   ar
    22    25    26   ar
    23    26    27   ar
    24    27    28   ar
    25    28    29   ar
    26    29    30   ar
    27    30    31    1
    28    30    32   ar
    29    32    33   ar
    30    33    34   ar
    31    26    35    1
    32    35    36    1
    33    36    37    1
    34    37    38    1
    35    18    19    1
    36    15    10    1
    37    34    24   ar
    38    19    13    1
    39    38    25    1
    40    34    28   ar
    41     7     8    1
    42    22    23    1
@<TRIPOS>MOLECULE
*****
 38 42 0 0 0
SMALL
GASTEIGER

@<TRIPOS>ATOM
      1 C         139.5833  137.7829  163.6703 C.3     1  UNL1        0.0017
      2 C         140.7581  137.4919  164.5565 C.3     1  UNL1        0.0001
      3 C         141.7671  138.5648  164.8406 C.3     1  UNL1        0.0000
      4 C         143.0421  138.2252  165.5542 C.3     1  UNL1        0.0014
      5 C         144.1799  139.2027  165.5630 C.3     1  UNL1        0.0171
      6 C         145.2243  139.1475  164.4878 C.3     1  UNL1        0.0685
      7 N         145.0390  139.9294  163.2212 N.3     1  UNL1       -0.2982
      8 H         145.0277  140.9152  163.4827 H       1  UNL1        0.1232
      9 O         137.9912  139.8542  158.7408 O.2     1  UNL1       -0.2726
     10 C         139.2004  140.0888  159.5969 C.2     1  UNL1        0.2497
     11 C         139.4074  141.4216  160.2533 C.3     1  UNL1        0.1129
     12 C         140.6165  141.6563  161.1094 C.2     1  UNL1       -0.0198
     13 C         141.6186  140.5582  161.3092 C.2     1  UNL1       -0.0134
     14 C         141.4116  139.2253  160.6528 C.2     1  UNL1        0.0468
     15 N         140.2025  138.9907  159.7967 N.am    1  UNL1       -0.1836
     16 C         142.4137  138.1273  160.8526 C.3     1  UNL1        0.0443
     17 C         143.6228  138.3619  161.7087 C.3     1  UNL1        0.0221
     18 C         143.8298  139.6947  162.3651 C.3     1  UNL1        0.0588
     19 C         142.8277  140.7929  162.1653 C.3     1  UNL1        0.0427
     20 C         139.0775  139.1883  163.5328 C.3     1  UNL1        0.0212
     21 C         137.8234  139.6068  164.2415 C.3     1  UNL1        0.0870
     22 N         137.8694  140.7060  165.2612 N.pl3   1  UNL1       -0.3328
     23 H         137.1058  140.8486  165.8661 H       1  UNL1        0.1468
     24 C         139.0788  141.5879  165.3593 C.ar    1  UNL1        0.0431
     25 C         140.1434  141.2909  166.3735 C.ar    1  UNL1        0.0045
     26 C         141.3528  142.1728  166.4716 C.ar    1  UNL1        0.0561
     27 N         141.4976  143.3517  165.5555 N.ar    1  UNL1       -0.2499
     28 C         140.4330  143.6487  164.5413 C.ar    1  UNL1        0.0829
     29 C         140.5779  144.8276  163.6252 C.ar    1  UNL1        0.0305
     30 C         139.5133  145.1246  162.6111 C.ar    1  UNL1        0.0592
     31 CL        139.6582  146.3035  161.6950 Cl      1  UNL1       -0.0822
     32 C         138.3039  144.2427  162.5130 C.ar    1  UNL1        0.0115
     33 C         138.1591  143.0638  163.4291 C.ar    1  UNL1        0.0036
     34 C         139.2237  142.7668  164.4433 C.ar    1  UNL1        0.0305
     35 C         142.4173  141.8758  167.4857 C.3     1  UNL1        0.0455
     36 C         142.2725  140.6969  168.4018 C.3     1  UNL1        0.0066
     37 C         141.0631  139.8150  168.3037 C.3     1  UNL1        0.0052
     38 C         139.9985  140.1120  167.2896 C.3     1  UNL1        0.0288
@<TRIPOS>BOND
     1     9    10    2
     2    10    11    1
     3    11    12    1
     4    12    13    2
     5    13    14    1
     6    14    15    2
     7    14    16    1
     8    16    17    1
     9    17    18    1
    10    18     7    1
    11     7     6    1
    12     6     5    1
    13     5     4    1
    14     4     3    1
    15     3     2    1
    16     2     1    1
    17     1    20    1
    18    20    21    1
    19    21    22    1
    20    22    24    1
    21    24    25   ar
    22    25    26   ar
    23    26    27   ar
    24    27    28   ar
    25    28    29   ar
    26    29    30   ar
    27    30    31    1
    28    30    32   ar
    29    32    33   ar
    30    33    34   ar
    31    26    35    1
    32    35    36    1
    33    36    37    1
    34    37    38    1
    35    18    19    1
    36    15    10    1
    37    34    24   ar
    38    19    13    1
    39    38    25    1
    40    34    28   ar
    41     7     8    1
    42    22    23    1
@<TRIPOS>MOLECULE
*****
 38 42 0 0 0
SMALL
GASTEIGER

@<TRIPOS>ATOM
      1 C         142.4697  144.8047  164.1412 C.3     1  UNL1        0.0017
      2 C         141.1628  144.1124  163.8910 C.3     1  UNL1        0.0001
      3 C         139.9197  144.9186  163.6571 C.3     1  UNL1        0.0000
      4 C         138.9793  144.5431  162.5505 C.3     1  UNL1        0.0014
      5 C         137.7832  143.6857  162.8412 C.3     1  UNL1        0.0171
      6 C         137.7013  142.9255  164.1317 C.3     1  UNL1        0.0685
      7 N         138.2088  141.5159  164.2053 N.3     1  UNL1       -0.2982
      8 H         137.3942  140.9058  164.1387 H       1  UNL1        0.1232
      9 O         143.3719  139.9838  170.5886 O.2     1  UNL1       -0.2726
     10 C         142.5880  140.4372  169.3928 C.2     1  UNL1        0.2497
     11 C         143.0478  141.6254  168.6011 C.3     1  UNL1        0.1129
     12 C         142.2639  142.0788  167.4053 C.2     1  UNL1       -0.0198
     13 C         141.0203  141.3440  167.0011 C.2     1  UNL1       -0.0134
     14 C         140.5604  140.1557  167.7928 C.2     1  UNL1        0.0468
     15 N         141.3443  139.7023  168.9886 N.am    1  UNL1       -0.1836
     16 C         139.3168  139.4209  167.3886 C.3     1  UNL1        0.0443
     17 C         138.5330  139.8743  166.1928 C.3     1  UNL1        0.0221
     18 C         138.9927  141.0625  165.4011 C.3     1  UNL1        0.0588
     19 C         140.2364  141.7974  165.8053 C.3     1  UNL1        0.0427
     20 C         143.5902  144.6715  163.1529 C.3     1  UNL1        0.0212
     21 C         144.4909  143.4729  163.1973 C.3     1  UNL1        0.0870
     22 N         144.2708  142.3337  162.2465 N.pl3   1  UNL1       -0.3328
     23 H         144.9526  142.1188  161.5695 H       1  UNL1        0.1468
     24 C         143.0119  141.5221  162.3271 C.ar    1  UNL1        0.0431
     25 C         142.8948  140.4180  163.3357 C.ar    1  UNL1        0.0045
     26 C         141.6359  139.6063  163.4164 C.ar    1  UNL1        0.0561
     27 N         140.4942  139.8988  162.4884 N.ar    1  UNL1       -0.2499
     28 C         140.6114  141.0029  161.4798 C.ar    1  UNL1        0.0829
     29 C         139.4697  141.2954  160.5519 C.ar    1  UNL1        0.0305
     30 C         139.5870  142.3995  159.5433 C.ar    1  UNL1        0.0592
     31 CL        138.4453  142.6919  158.6154 Cl      1  UNL1       -0.0822
     32 C         140.8458  143.2111  159.4627 C.ar    1  UNL1        0.0115
     33 C         141.9875  142.9187  160.3906 C.ar    1  UNL1        0.0036
     34 C         141.8703  141.8145  161.3992 C.ar    1  UNL1        0.0305
     35 C         141.5187  138.5022  164.4249 C.3     1  UNL1        0.0455
     36 C         142.6603  138.2098  165.3528 C.3     1  UNL1        0.0066
     37 C         143.9192  139.0214  165.2722 C.3     1  UNL1        0.0052
     38 C         144.0364  140.1255  164.2636 C.3     1  UNL1        0.0288
@<TRIPOS>BOND
     1     9    10    2
     2    10    11    1
     3    11    12    1
     4    12    13    2
     5    13    14    1
     6    14    15    2
     7    14    16    1
     8    16    17    1
     9    17    18    1
    10    18     7    1
    11     7     6    1
    12     6     5    1
    13     5     4    1
    14     4     3    1
    15     3     2    1
    16     2     1    1
    17     1    20    1
    18    20    21    1
    19    21    22    1
    20    22    24    1
    21    24    25   ar
    22    25    26   ar
    23    26    27   ar
    24    27    28   ar
    25    28    29   ar
    26    29    30   ar
    27    30    31    1
    28    30    32   ar
    29    32    33   ar
    30    33    34   ar
    31    26    35    1
    32    35    36    1
    33    36    37    1
    34    37    38    1
    35    18    19    1
    36    15    10    1
    37    34    24   ar
    38    19    13    1
    39    38    25    1
    40    34    28   ar
    41     7     8    1
    42    22    23    1
@<TRIPOS>MOLECULE
*****
 38 42 0 0 0
SMALL
GASTEIGER

@<TRIPOS>ATOM
      1 C         144.7434  141.2197  164.2798 C.3     1  UNL1        0.0017
      2 C         144.0095  142.3086  165.0049 C.3     1  UNL1        0.0001
      3 C         144.6441  143.6572  165.1736 C.3     1  UNL1        0.0000
      4 C         143.9510  144.8824  164.6555 C.3     1  UNL1        0.0014
      5 C         142.9710  144.7683  163.5255 C.3     1  UNL1        0.0171
      6 C         141.5163  145.0461  163.7635 C.3     1  UNL1        0.0685
      7 N         140.5786  143.9179  164.0762 N.3     1  UNL1       -0.2982
      8 H         141.0198  143.3630  164.8097 H       1  UNL1        0.1232
      9 O         139.4995  138.0881  158.1941 O.2     1  UNL1       -0.2726
     10 C         139.9080  139.0451  159.2745 C.2     1  UNL1        0.2497
     11 C         141.2799  138.9576  159.8746 C.3     1  UNL1        0.1129
     12 C         141.6884  139.9146  160.9550 C.2     1  UNL1       -0.0198
     13 C         140.7250  140.9592  161.4352 C.2     1  UNL1       -0.0134
     14 C         139.3531  141.0468  160.8351 C.2     1  UNL1        0.0468
     15 N         138.9445  140.0897  159.7547 N.am    1  UNL1       -0.1836
     16 C         138.3897  142.0914  161.3154 C.3     1  UNL1        0.0443
     17 C         138.7982  143.0484  162.3957 C.3     1  UNL1        0.0221
     18 C         140.1701  142.9608  162.9959 C.3     1  UNL1        0.0588
     19 C         141.1336  141.9162  162.5156 C.3     1  UNL1        0.0427
     20 C         144.0858  139.8896  164.0602 C.3     1  UNL1        0.0212
     21 C         144.2557  138.7931  165.0696 C.3     1  UNL1        0.0870
     22 N         143.0986  138.3800  165.9301 N.pl3   1  UNL1       -0.3328
     23 H         143.1581  137.5628  166.4760 H       1  UNL1        0.1468
     24 C         141.8507  139.2118  165.9588 C.ar    1  UNL1        0.0431
     25 C         140.7430  138.9362  164.9856 C.ar    1  UNL1        0.0045
     26 C         139.4951  139.7681  165.0143 C.ar    1  UNL1        0.0561
     27 N         139.3549  140.8755  166.0163 N.ar    1  UNL1       -0.2499
     28 C         140.4626  141.1511  166.9895 C.ar    1  UNL1        0.0829
     29 C         140.3223  142.2585  167.9915 C.ar    1  UNL1        0.0305
     30 C         141.4300  142.5341  168.9648 C.ar    1  UNL1        0.0592
     31 CL        141.2897  143.6415  169.9667 Cl      1  UNL1       -0.0822
     32 C         142.6778  141.7022  168.9360 C.ar    1  UNL1        0.0115
     33 C         142.8181  140.5948  167.9341 C.ar    1  UNL1        0.0036
     34 C         141.7104  140.3192  166.9608 C.ar    1  UNL1        0.0305
     35 C         138.3875  139.4925  164.0411 C.3     1  UNL1        0.0455
     36 C         138.5278  138.3851  163.0391 C.3     1  UNL1        0.0066
     37 C         139.7756  137.5533  163.0104 C.3     1  UNL1        0.0052
     38 C         140.8833  137.8288  163.9836 C.3     1  UNL1        0.0288
@<TRIPOS>BOND
     1     9    10    2
     2    10    11    1
     3    11    12    1
     4    12    13    2
     5    13    14    1
     6    14    15    2
     7    14    16    1
     8    16    17    1
     9    17    18    1
    10    18     7    1
    11     7     6    1
    12     6     5    1
    13     5     4    1
    14     4     3    1
    15     3     2    1
    16     2     1    1
    17     1    20    1
    18    20    21    1
    19    21    22    1
    20    22    24    1
    21    24    25   ar
    22    25    26   ar
    23    26    27   ar
    24    27    28   ar
    25    28    29   ar
    26    29    30   ar
    27    30    31    1
    28    30    32   ar
    29    32    33   ar
    30    33    34   ar
    31    26    35    1
    32    35    36    1
    33    36    37    1
    34    37    38    1
    35    18    19    1
    36    15    10    1
    37    34    24   ar
    38    19    13    1
    39    38    25    1
    40    34    28   ar
    41     7     8    1
    42    22    23    1
