@<TRIPOS>MOLECULE
*****
 40 45 0 0 0
SMALL
GASTEIGER

@<TRIPOS>ATOM
      1 C         142.7482  135.6652  157.5779 C.ar    1  UNL1        0.2400
      2 N         142.1676  135.2552  156.2570 N.ar    1  UNL1       -0.2090
      3 C         141.4294  136.2567  155.4189 C.ar    1  UNL1        0.1021
      4 C         141.0888  137.7502  155.6018 C.ar    1  UNL1        0.0207
      5 C         141.8657  137.1811  156.7518 C.ar    1  UNL1        0.0221
      6 C         142.5908  137.0766  158.0607 C.ar    1  UNL1        0.1178
      7 N         143.1855  137.4480  159.3867 N.pl3   1  UNL1       -0.2104
      8 S         143.5854  138.2552  160.5862 S.O2    1  UNL1        0.0737
      9 O         144.0354  136.8255  160.6447 O.2     1  UNL1       -0.1499
     10 O         144.3468  137.9137  161.8326 O.2     1  UNL1       -0.1499
     11 C         143.6942  139.7559  161.6200 C.ar    1  UNL1        0.1253
     12 C         144.4400  139.5321  162.9021 C.ar    1  UNL1        0.0202
     13 C         144.6226  140.6628  163.8707 C.ar    1  UNL1        0.0015
     14 C         144.0594  142.0172  163.5572 C.ar    1  UNL1        0.0046
     15 C         143.3136  142.2410  162.2751 C.ar    1  UNL1        0.0547
     16 C         143.1310  141.1103  161.3066 C.ar    1  UNL1        0.0247
     17 C         142.7654  143.6093  161.9976 C.2     1  UNL1        0.2459
     18 O         143.2189  144.3141  163.2416 O.2     1  UNL1       -0.2701
     19 N         142.0679  144.7458  161.3106 N.am    1  UNL1       -0.2989
     20 C         141.2966  145.5270  160.2884 C.3     1  UNL1        0.1161
     21 C         140.5352  145.8685  159.0419 C.3     1  UNL1        0.1487
     22 N         139.8662  145.7332  157.7062 N.ar    1  UNL1       -0.2476
     23 C         139.3620  145.1357  156.4260 C.ar    1  UNL1        0.0982
     24 C         139.0773  144.1410  155.3401 C.ar    1  UNL1        0.0574
     25 C         138.5668  145.5385  155.1495 C.ar    1  UNL1        0.1231
     26 N         138.9666  146.3456  156.3490 N.ar    1  UNL1       -0.1676
     27 C         139.0430  142.8565  154.5660 C.ar    1  UNL1        0.0875
     28 N         138.2873  143.7677  153.6448 N.ar    1  UNL1       -0.2239
     29 C         137.7513  143.2441  152.3454 C.ar    1  UNL1        0.1988
     30 N         137.9710  141.8093  151.9671 N.ar    1  UNL1       -0.2240
     31 C         138.7268  140.8981  152.8883 C.ar    1  UNL1        0.0845
     32 C         139.0272  139.2986  152.5712 C.ar    1  UNL1        0.0192
     33 C         139.7668  138.3037  153.4158 C.ar    1  UNL1        0.0016
     34 C         140.3443  138.7223  154.7353 C.ar    1  UNL1        0.0017
     35 C         139.7128  139.9920  154.2463 C.ar    1  UNL1        0.0031
     36 C         139.2628  141.4217  154.1878 C.ar    1  UNL1        0.0355
     37 H         143.5740  136.5793  159.6391 H       1  UNL1        0.1739
     38 H         142.2149  145.4538  161.9786 H       1  UNL1        0.1498
     39 C         144.1094  133.4608  157.7720 C.3     1  UNL1        0.2543
     40 O         143.4863  134.6637  158.4159 O.3     1  UNL1       -0.4553
@<TRIPOS>BOND
     1    39    40    1
     2    40     1    1
     3     1     2   ar
     4     2     3   ar
     5     3     4   ar
     6     4     5   ar
     7     5     6   ar
     8     6     7    1
     9     7     8    1
    10     8     9    2
    11     8    10    2
    12     8    11    1
    13    11    12   ar
    14    12    13   ar
    15    13    14   ar
    16    14    15   ar
    17    15    16   ar
    18    15    17    1
    19    17    18    2
    20    17    19   am
    21    19    20    1
    22    20    21    1
    23    21    22    1
    24    22    23   ar
    25    23    24   ar
    26    24    25   ar
    27    25    26   ar
    28    24    27    1
    29    27    28   ar
    30    28    29   ar
    31    29    30   ar
    32    30    31   ar
    33    31    32   ar
    34    32    33   ar
    35    33    34   ar
    36    34    35   ar
    37    35    36   ar
    38     6     1   ar
    39    16    11   ar
    40    26    22   ar
    41    36    27   ar
    42    34     4    1
    43    36    31   ar
    44     7    37    1
    45    19    38    1
@<TRIPOS>MOLECULE
*****
 40 45 0 0 0
SMALL
GASTEIGER

@<TRIPOS>ATOM
      1 C         139.2593  146.8439  156.7982 C.ar    1  UNL1        0.2400
      2 N         139.1558  146.7556  155.3043 N.ar    1  UNL1       -0.2090
      3 C         139.5490  145.4916  154.5987 C.ar    1  UNL1        0.1021
      4 C         140.0859  144.1281  155.0814 C.ar    1  UNL1        0.0207
      5 C         139.8391  145.0917  156.2042 C.ar    1  UNL1        0.0221
      6 C         139.7558  145.6683  157.5864 C.ar    1  UNL1        0.1178
      7 N         139.8450  145.7954  159.0784 N.pl3   1  UNL1       -0.2104
      8 S         140.0970  145.4593  160.5183 S.O2    1  UNL1        0.0737
      9 O         139.5751  146.8494  160.3065 O.2     1  UNL1       -0.1499
     10 O         139.9297  146.2400  161.7881 O.2     1  UNL1       -0.1499
     11 C         140.6070  144.3987  161.9141 C.ar    1  UNL1        0.1253
     12 C         140.4813  145.0797  163.2446 C.ar    1  UNL1        0.0202
     13 C         140.8590  144.3497  164.4994 C.ar    1  UNL1        0.0015
     14 C         141.3624  142.9388  164.4236 C.ar    1  UNL1        0.0046
     15 C         141.4881  142.2578  163.0931 C.ar    1  UNL1        0.0547
     16 C         141.1104  142.9878  161.8383 C.ar    1  UNL1        0.0247
     17 C         141.9953  140.8466  163.0584 C.2     1  UNL1        0.2459
     18 O         142.2086  140.6247  164.5265 O.2     1  UNL1       -0.2701
     19 N         142.4323  139.5084  162.5405 N.am    1  UNL1       -0.2989
     20 C         142.7518  138.3882  161.5954 C.3     1  UNL1        0.1161
     21 C         142.9191  137.6075  160.3255 C.3     1  UNL1        0.1487
     22 N         142.9161  137.2507  158.8686 N.ar    1  UNL1       -0.2476
     23 C         142.7431  137.3568  157.3824 C.ar    1  UNL1        0.0982
     24 C         142.4190  137.9139  156.0280 C.ar    1  UNL1        0.0574
     25 C         142.9338  136.5065  156.0922 C.ar    1  UNL1        0.1231
     26 N         143.1858  136.1703  157.5321 N.ar    1  UNL1       -0.1676
     27 C         141.9786  138.8619  154.9521 C.ar    1  UNL1        0.0875
     28 N         142.3419  137.6541  154.1401 N.ar    1  UNL1       -0.2239
     29 C         142.1964  137.6824  152.6475 C.ar    1  UNL1        0.1988
     30 N         141.6877  138.9185  151.9668 N.ar    1  UNL1       -0.2240
     31 C         141.3245  140.1262  152.7788 C.ar    1  UNL1        0.0845
     32 C         140.7538  141.5423  152.1320 C.ar    1  UNL1        0.0192
     33 C         140.3628  142.8023  152.8457 C.ar    1  UNL1        0.0016
     34 C         140.4693  142.8819  154.3398 C.ar    1  UNL1        0.0017
     35 C         140.9480  141.4882  154.0596 C.ar    1  UNL1        0.0031
     36 C         141.4700  140.0980  154.2714 C.ar    1  UNL1        0.0355
     37 H         139.5204  146.7190  159.1820 H       1  UNL1        0.1739
     38 H         142.6667  139.0737  163.3922 H       1  UNL1        0.1498
     39 C         138.4874  149.3231  156.7102 C.3     1  UNL1        0.2543
     40 O         138.8661  148.1079  157.5037 O.3     1  UNL1       -0.4553
@<TRIPOS>BOND
     1    39    40    1
     2    40     1    1
     3     1     2   ar
     4     2     3   ar
     5     3     4   ar
     6     4     5   ar
     7     5     6   ar
     8     6     7    1
     9     7     8    1
    10     8     9    2
    11     8    10    2
    12     8    11    1
    13    11    12   ar
    14    12    13   ar
    15    13    14   ar
    16    14    15   ar
    17    15    16   ar
    18    15    17    1
    19    17    18    2
    20    17    19   am
    21    19    20    1
    22    20    21    1
    23    21    22    1
    24    22    23   ar
    25    23    24   ar
    26    24    25   ar
    27    25    26   ar
    28    24    27    1
    29    27    28   ar
    30    28    29   ar
    31    29    30   ar
    32    30    31   ar
    33    31    32   ar
    34    32    33   ar
    35    33    34   ar
    36    34    35   ar
    37    35    36   ar
    38     6     1   ar
    39    16    11   ar
    40    26    22   ar
    41    36    27   ar
    42    34     4    1
    43    36    31   ar
    44     7    37    1
    45    19    38    1
@<TRIPOS>MOLECULE
*****
 40 45 0 0 0
SMALL
GASTEIGER

@<TRIPOS>ATOM
      1 C         140.0624  145.8175  155.2298 C.ar    1  UNL1        0.2400
      2 N         139.7073  146.8861  156.2209 N.ar    1  UNL1       -0.2090
      3 C         139.8002  146.6057  157.6916 C.ar    1  UNL1        0.1021
      4 C         140.2117  145.3664  158.5131 C.ar    1  UNL1        0.0207
      5 C         140.2873  145.1395  157.0323 C.ar    1  UNL1        0.0221
      6 C         140.5103  144.4687  155.7094 C.ar    1  UNL1        0.1178
      7 N         140.8567  143.4265  154.6877 N.pl3   1  UNL1       -0.2104
      8 S         141.2888  142.1260  154.0779 S.O2    1  UNL1        0.0737
      9 O         140.9394  143.1784  153.0679 O.2     1  UNL1       -0.1499
     10 O         141.4402  141.6710  152.6567 O.2     1  UNL1       -0.1499
     11 C         141.8643  140.3935  154.0894 C.ar    1  UNL1        0.1253
     12 C         142.0521  139.8286  152.7127 C.ar    1  UNL1        0.0202
     13 C         142.5218  138.4146  152.5398 C.ar    1  UNL1        0.0015
     14 C         142.8037  137.5654  153.7438 C.ar    1  UNL1        0.0046
     15 C         142.6158  138.1303  155.1206 C.ar    1  UNL1        0.0547
     16 C         142.1461  139.5443  155.2934 C.ar    1  UNL1        0.0247
     17 C         142.9079  137.2500  156.2994 C.2     1  UNL1        0.2459
     18 O         143.3227  136.0016  155.5786 O.2     1  UNL1       -0.2701
     19 N         143.0636  136.7806  157.7155 N.am    1  UNL1       -0.2989
     20 C         143.0658  136.7730  159.2155 C.3     1  UNL1        0.1161
     21 C         142.9144  137.2281  160.6368 C.3     1  UNL1        0.1487
     22 N         142.6258  138.0964  161.8254 N.ar    1  UNL1       -0.2476
     23 C         142.2311  139.2840  162.6524 C.ar    1  UNL1        0.0982
     24 C         141.7734  140.6620  163.0283 C.ar    1  UNL1        0.0574
     25 C         142.0894  139.7097  164.1432 C.ar    1  UNL1        0.1231
     26 N         142.5215  138.4092  163.5334 N.ar    1  UNL1       -0.1676
     27 C         141.3019  142.0814  162.9122 C.ar    1  UNL1        0.0875
     28 N         141.3562  141.9172  164.4023 N.ar    1  UNL1       -0.2239
     29 C         140.9765  143.0597  165.2970 C.ar    1  UNL1        0.1988
     30 N         140.5426  144.3664  164.7016 N.ar    1  UNL1       -0.2240
     31 C         140.4884  144.5305  163.2117 C.ar    1  UNL1        0.0845
     32 C         140.0246  145.9273  162.4479 C.ar    1  UNL1        0.0192
     33 C         139.9347  146.1989  160.9754 C.ar    1  UNL1        0.0016
     34 C         140.2917  145.1246  159.9914 C.ar    1  UNL1        0.0017
     35 C         140.5187  144.4405  161.3069 C.ar    1  UNL1        0.0031
     36 C         140.8681  143.3880  162.3170 C.ar    1  UNL1        0.0355
     37 H         140.6857  143.9417  153.8663 H       1  UNL1        0.1739
     38 H         143.3694  135.8598  157.5483 H       1  UNL1        0.1498
     39 C         141.0865  146.8149  153.0604 C.3     1  UNL1        0.2543
     40 O         139.9696  146.0980  153.7592 O.3     1  UNL1       -0.4553
@<TRIPOS>BOND
     1    39    40    1
     2    40     1    1
     3     1     2   ar
     4     2     3   ar
     5     3     4   ar
     6     4     5   ar
     7     5     6   ar
     8     6     7    1
     9     7     8    1
    10     8     9    2
    11     8    10    2
    12     8    11    1
    13    11    12   ar
    14    12    13   ar
    15    13    14   ar
    16    14    15   ar
    17    15    16   ar
    18    15    17    1
    19    17    18    2
    20    17    19   am
    21    19    20    1
    22    20    21    1
    23    21    22    1
    24    22    23   ar
    25    23    24   ar
    26    24    25   ar
    27    25    26   ar
    28    24    27    1
    29    27    28   ar
    30    28    29   ar
    31    29    30   ar
    32    30    31   ar
    33    31    32   ar
    34    32    33   ar
    35    33    34   ar
    36    34    35   ar
    37    35    36   ar
    38     6     1   ar
    39    16    11   ar
    40    26    22   ar
    41    36    27   ar
    42    34     4    1
    43    36    31   ar
    44     7    37    1
    45    19    38    1
@<TRIPOS>MOLECULE
*****
 40 45 0 0 0
SMALL
GASTEIGER

@<TRIPOS>ATOM
      1 C         142.9835  136.3345  157.6741 C.ar    1  UNL1        0.2400
      2 N         143.0164  136.2265  156.1783 N.ar    1  UNL1       -0.2090
      3 C         142.6504  137.4102  155.3327 C.ar    1  UNL1        0.1021
      4 C         142.2052  138.8512  155.6577 C.ar    1  UNL1        0.0207
      5 C         142.4605  138.0260  156.8840 C.ar    1  UNL1        0.0221
      6 C         142.5846  137.6260  158.3243 C.ar    1  UNL1        0.1178
      7 N         142.5639  137.6945  159.8226 N.pl3   1  UNL1       -0.2104
      8 S         142.4007  138.2240  161.2165 S.O2    1  UNL1        0.0737
      9 O         142.8432  136.7918  161.1640 O.2     1  UNL1       -0.1499
     10 O         142.5930  137.6029  162.5682 O.2     1  UNL1       -0.1499
     11 C         142.0131  139.4795  162.4840 C.ar    1  UNL1        0.1253
     12 C         142.1718  138.9672  163.8848 C.ar    1  UNL1        0.0202
     13 C         141.8932  139.8701  165.0497 C.ar    1  UNL1        0.0015
     14 C         141.4558  141.2854  164.8137 C.ar    1  UNL1        0.0046
     15 C         141.2970  141.7977  163.4129 C.ar    1  UNL1        0.0547
     16 C         141.5757  140.8948  162.2481 C.ar    1  UNL1        0.0247
     17 C         140.8579  143.2186  163.2179 C.2     1  UNL1        0.2459
     18 O         140.7292  143.6365  164.6528 O.2     1  UNL1       -0.2701
     19 N         140.4611  144.5021  162.5506 N.am    1  UNL1       -0.2989
     20 C         140.1497  145.5089  161.4831 C.3     1  UNL1        0.1161
     21 C         139.9573  146.1300  160.1313 C.3     1  UNL1        0.1487
     22 N         139.9049  146.2981  158.6417 N.ar    1  UNL1       -0.2476
     23 C         139.9982  145.9949  157.1756 C.ar    1  UNL1        0.0982
     24 C         140.2269  145.2534  155.8920 C.ar    1  UNL1        0.0574
     25 C         139.7850  146.6835  155.7957 C.ar    1  UNL1        0.1231
     26 N         139.6217  147.2131  157.1896 N.ar    1  UNL1       -0.1676
     27 C         140.5664  144.1538  154.9299 C.ar    1  UNL1        0.0875
     28 N         140.2222  145.2667  153.9849 N.ar    1  UNL1       -0.2239
     29 C         140.2915  145.0412  152.5035 C.ar    1  UNL1        0.1988
     30 N         140.7049  143.7027  151.9672 N.ar    1  UNL1       -0.2240
     31 C         141.0491  142.5898  152.9122 C.ar    1  UNL1        0.0845
     32 C         141.5173  141.0740  152.4300 C.ar    1  UNL1        0.0192
     33 C         141.8818  139.8954  153.2833 C.ar    1  UNL1        0.0016
     34 C         141.8462  140.0122  154.7783 C.ar    1  UNL1        0.0017
     35 C         141.4224  141.3831  154.3410 C.ar    1  UNL1        0.0031
     36 C         140.9798  142.8154  154.3935 C.ar    1  UNL1        0.0355
     37 H         142.8480  136.7751  160.0308 H       1  UNL1        0.1739
     38 H         140.2909  145.0536  163.3482 H       1  UNL1        0.1498
     39 C         143.7306  133.8538  157.8695 C.3     1  UNL1        0.2543
     40 O         143.3495  135.1507  158.5196 O.3     1  UNL1       -0.4553
@<TRIPOS>BOND
     1    39    40    1
     2    40     1    1
     3     1     2   ar
     4     2     3   ar
     5     3     4   ar
     6     4     5   ar
     7     5     6   ar
     8     6     7    1
     9     7     8    1
    10     8     9    2
    11     8    10    2
    12     8    11    1
    13    11    12   ar
    14    12    13   ar
    15    13    14   ar
    16    14    15   ar
    17    15    16   ar
    18    15    17    1
    19    17    18    2
    20    17    19   am
    21    19    20    1
    22    20    21    1
    23    21    22    1
    24    22    23   ar
    25    23    24   ar
    26    24    25   ar
    27    25    26   ar
    28    24    27    1
    29    27    28   ar
    30    28    29   ar
    31    29    30   ar
    32    30    31   ar
    33    31    32   ar
    34    32    33   ar
    35    33    34   ar
    36    34    35   ar
    37    35    36   ar
    38     6     1   ar
    39    16    11   ar
    40    26    22   ar
    41    36    27   ar
    42    34     4    1
    43    36    31   ar
    44     7    37    1
    45    19    38    1
@<TRIPOS>MOLECULE
*****
 40 45 0 0 0
SMALL
GASTEIGER

@<TRIPOS>ATOM
      1 C         142.9766  137.5579  157.1170 C.ar    1  UNL1        0.2400
      2 N         143.1425  136.5098  158.1772 N.ar    1  UNL1       -0.2090
      3 C         142.7949  136.8230  159.6024 C.ar    1  UNL1        0.1021
      4 C         142.2562  138.0822  160.3126 C.ar    1  UNL1        0.0207
      5 C         142.4442  138.2767  158.8372 C.ar    1  UNL1        0.0221
      6 C         142.4632  138.9192  157.4819 C.ar    1  UNL1        0.1178
      7 N         142.3110  139.9402  156.3937 N.pl3   1  UNL1       -0.2104
      8 S         142.0043  141.2291  155.6903 S.O2    1  UNL1        0.0737
      9 O         142.5166  140.1529  154.7798 O.2     1  UNL1       -0.1499
     10 O         142.1092  141.6533  154.2554 O.2     1  UNL1       -0.1499
     11 C         141.4510  142.9643  155.5642 C.ar    1  UNL1        0.1253
     12 C         141.5131  143.4995  154.1643 C.ar    1  UNL1        0.0202
     13 C         141.0935  144.9116  153.8820 C.ar    1  UNL1        0.0015
     14 C         140.6118  145.7886  154.9996 C.ar    1  UNL1        0.0046
     15 C         140.5496  145.2534  156.3994 C.ar    1  UNL1        0.0547
     16 C         140.9692  143.8412  156.6817 C.ar    1  UNL1        0.0247
     17 C         140.0624  146.1609  157.4898 C.2     1  UNL1        0.2459
     18 O         139.7918  147.3951  156.6813 O.2     1  UNL1       -0.2701
     19 N         139.6642  146.6623  158.8462 N.am    1  UNL1       -0.2989
     20 C         139.3983  146.7030  160.3220 C.3     1  UNL1        0.1161
     21 C         139.2934  146.2788  161.7569 C.3     1  UNL1        0.1487
     22 N         139.3609  145.4355  162.9956 N.ar    1  UNL1       -0.2476
     23 C         139.5935  144.2645  163.9038 C.ar    1  UNL1        0.0982
     24 C         139.9660  142.8929  164.3831 C.ar    1  UNL1        0.0574
     25 C         139.4671  143.8712  165.4049 C.ar    1  UNL1        0.1231
     26 N         139.1603  145.1601  164.7015 N.ar    1  UNL1       -0.1676
     27 C         140.4380  141.4691  164.3815 C.ar    1  UNL1        0.0875
     28 N         140.1240  141.6664  165.8350 N.ar    1  UNL1       -0.2239
     29 C         140.3304  140.5421  166.8062 C.ar    1  UNL1        0.1988
     30 N         140.8508  139.2204  166.3240 N.ar    1  UNL1       -0.2240
     31 C         141.1648  139.0231  164.8706 C.ar    1  UNL1        0.0845
     32 C         141.7434  137.6075  164.2297 C.ar    1  UNL1        0.0192
     33 C         142.0885  137.3030  162.8021 C.ar    1  UNL1        0.0016
     34 C         141.9196  138.3570  161.7483 C.ar    1  UNL1        0.0017
     35 C         141.4708  139.0712  162.9887 C.ar    1  UNL1        0.0031
     36 C         140.9584  140.1475  163.8993 C.ar    1  UNL1        0.0355
     37 H         142.6193  139.4062  155.6262 H       1  UNL1        0.1739
     38 H         139.4006  147.5806  158.6086 H       1  UNL1        0.1498
     39 C         144.0451  135.9723  155.3580 C.3     1  UNL1        0.2543
     40 O         143.3242  137.2446  155.6919 O.3     1  UNL1       -0.4553
@<TRIPOS>BOND
     1    39    40    1
     2    40     1    1
     3     1     2   ar
     4     2     3   ar
     5     3     4   ar
     6     4     5   ar
     7     5     6   ar
     8     6     7    1
     9     7     8    1
    10     8     9    2
    11     8    10    2
    12     8    11    1
    13    11    12   ar
    14    12    13   ar
    15    13    14   ar
    16    14    15   ar
    17    15    16   ar
    18    15    17    1
    19    17    18    2
    20    17    19   am
    21    19    20    1
    22    20    21    1
    23    21    22    1
    24    22    23   ar
    25    23    24   ar
    26    24    25   ar
    27    25    26   ar
    28    24    27    1
    29    27    28   ar
    30    28    29   ar
    31    29    30   ar
    32    30    31   ar
    33    31    32   ar
    34    32    33   ar
    35    33    34   ar
    36    34    35   ar
    37    35    36   ar
    38     6     1   ar
    39    16    11   ar
    40    26    22   ar
    41    36    27   ar
    42    34     4    1
    43    36    31   ar
    44     7    37    1
    45    19    38    1
@<TRIPOS>MOLECULE
*****
 40 45 0 0 0
SMALL
GASTEIGER

@<TRIPOS>ATOM
      1 C         142.7614  139.5933  162.2244 C.ar    1  UNL1        0.2400
      2 N         142.4874  140.9247  162.8587 N.ar    1  UNL1       -0.2090
      3 C         141.9707  142.0602  162.0257 C.ar    1  UNL1        0.1021
      4 C         141.6183  142.2069  160.5309 C.ar    1  UNL1        0.0207
      5 C         142.1085  140.8344  160.8855 C.ar    1  UNL1        0.0221
      6 C         142.5188  139.3973  160.7572 C.ar    1  UNL1        0.1178
      7 N         142.8048  138.0515  160.1598 N.pl3   1  UNL1       -0.2104
      8 S         142.9356  136.9427  159.1580 S.O2    1  UNL1        0.0737
      9 O         143.3410  136.5501  160.5477 O.2     1  UNL1       -0.1499
     10 O         143.3920  135.5185  159.2728 O.2     1  UNL1       -0.1499
     11 C         142.8295  136.1725  157.5062 C.ar    1  UNL1        0.1253
     12 C         143.2644  134.7370  157.4994 C.ar    1  UNL1        0.0202
     13 C         143.2398  133.9520  156.2215 C.ar    1  UNL1        0.0015
     14 C         142.7804  134.6025  154.9504 C.ar    1  UNL1        0.0046
     15 C         142.3455  136.0380  154.9572 C.ar    1  UNL1        0.0547
     16 C         142.3700  136.8230  156.2351 C.ar    1  UNL1        0.0247
     17 C         141.8927  136.6530  153.6661 C.2     1  UNL1        0.2459
     18 O         142.0642  135.4725  152.7568 O.2     1  UNL1       -0.2701
     19 N         141.3835  137.6565  152.6744 N.am    1  UNL1       -0.2989
     20 C         140.8730  138.9400  152.0895 C.3     1  UNL1        0.1161
     21 C         140.4165  140.3643  151.9748 C.3     1  UNL1        0.1487
     22 N         140.0635  141.7750  152.3426 N.ar    1  UNL1       -0.2476
     23 C         139.8523  143.0192  153.1533 C.ar    1  UNL1        0.0982
     24 C         139.8057  143.9622  154.3188 C.ar    1  UNL1        0.0574
     25 C         139.3704  144.4900  152.9839 C.ar    1  UNL1        0.1231
     26 N         139.5011  143.3812  151.9822 N.ar    1  UNL1       -0.1676
     27 C         139.9288  144.5018  155.7131 C.ar    1  UNL1        0.0875
     28 N         139.4124  145.7062  154.9831 N.ar    1  UNL1       -0.2239
     29 C         139.1755  146.9883  155.7249 C.ar    1  UNL1        0.1988
     30 N         139.4550  147.0659  157.1966 N.ar    1  UNL1       -0.2240
     31 C         139.9713  145.8615  157.9265 C.ar    1  UNL1        0.0845
     32 C         140.3134  145.8352  159.5488 C.ar    1  UNL1        0.0192
     33 C         140.8301  144.6943  160.3741 C.ar    1  UNL1        0.0016
     34 C         141.1014  143.3663  159.7317 C.ar    1  UNL1        0.0017
     35 C         140.6137  144.1868  158.5745 C.ar    1  UNL1        0.0031
     36 C         140.2082  144.5795  157.1847 C.ar    1  UNL1        0.0355
     37 H         143.1145  137.5788  160.9660 H       1  UNL1        0.1739
     38 H         141.3861  137.0985  151.8633 H       1  UNL1        0.1498
     39 C         143.0033  138.4235  164.5316 C.3     1  UNL1        0.2543
     40 O         143.2780  138.4578  163.0574 O.3     1  UNL1       -0.4553
@<TRIPOS>BOND
     1    39    40    1
     2    40     1    1
     3     1     2   ar
     4     2     3   ar
     5     3     4   ar
     6     4     5   ar
     7     5     6   ar
     8     6     7    1
     9     7     8    1
    10     8     9    2
    11     8    10    2
    12     8    11    1
    13    11    12   ar
    14    12    13   ar
    15    13    14   ar
    16    14    15   ar
    17    15    16   ar
    18    15    17    1
    19    17    18    2
    20    17    19   am
    21    19    20    1
    22    20    21    1
    23    21    22    1
    24    22    23   ar
    25    23    24   ar
    26    24    25   ar
    27    25    26   ar
    28    24    27    1
    29    27    28   ar
    30    28    29   ar
    31    29    30   ar
    32    30    31   ar
    33    31    32   ar
    34    32    33   ar
    35    33    34   ar
    36    34    35   ar
    37    35    36   ar
    38     6     1   ar
    39    16    11   ar
    40    26    22   ar
    41    36    27   ar
    42    34     4    1
    43    36    31   ar
    44     7    37    1
    45    19    38    1
@<TRIPOS>MOLECULE
*****
 40 45 0 0 0
SMALL
GASTEIGER

@<TRIPOS>ATOM
      1 C         143.8625  140.2050  161.9994 C.ar    1  UNL1        0.2400
      2 N         144.3552  138.8090  162.2410 N.ar    1  UNL1       -0.2090
      3 C         144.0977  137.7364  161.2243 C.ar    1  UNL1        0.1021
      4 C         143.3803  137.7170  159.8586 C.ar    1  UNL1        0.0207
      5 C         143.3698  139.0696  160.5071 C.ar    1  UNL1        0.0221
      6 C         143.1124  140.5286  160.7414 C.ar    1  UNL1        0.1178
      7 N         142.6360  141.9360  160.5362 N.pl3   1  UNL1       -0.2104
      8 S         141.9922  143.1394  159.9137 S.O2    1  UNL1        0.0737
      9 O         142.6246  143.4156  161.2455 O.2     1  UNL1       -0.1499
     10 O         141.8564  144.5646  160.3612 O.2     1  UNL1       -0.1499
     11 C         141.0735  144.0575  158.6307 C.ar    1  UNL1        0.1253
     12 C         140.8763  145.5045  158.9728 C.ar    1  UNL1        0.0202
     13 C         140.1400  146.4053  158.0260 C.ar    1  UNL1        0.0015
     14 C         139.6010  145.8591  156.7372 C.ar    1  UNL1        0.0046
     15 C         139.7982  144.4120  156.3951 C.ar    1  UNL1        0.0547
     16 C         140.5345  143.5112  157.3419 C.ar    1  UNL1        0.0247
     17 C         139.2446  143.9033  155.0972 C.2     1  UNL1        0.2459
     18 O         138.6366  145.1710  154.5743 O.2     1  UNL1       -0.2701
     19 N         138.8910  142.9774  153.9713 N.am    1  UNL1       -0.2989
     20 C         138.7758  141.7344  153.1396 C.3     1  UNL1        0.1161
     21 C         138.9116  140.3091  152.6921 C.3     1  UNL1        0.1487
     22 N         139.2836  138.8560  152.6773 N.ar    1  UNL1       -0.2476
     23 C         139.8515  137.5326  153.0969 C.ar    1  UNL1        0.0982
     24 C         140.5537  136.4823  153.9053 C.ar    1  UNL1        0.0574
     25 C         139.9666  136.0652  152.5895 C.ar    1  UNL1        0.1231
     26 N         139.3228  137.2686  151.9670 N.ar    1  UNL1       -0.1676
     27 C         141.3142  135.8188  155.0151 C.ar    1  UNL1        0.0875
     28 N         141.1168  134.6679  154.0734 N.ar    1  UNL1       -0.2239
     29 C         141.6558  133.3123  154.4225 C.ar    1  UNL1        0.1988
     30 N         142.3921  133.1076  155.7133 N.ar    1  UNL1       -0.2240
     31 C         142.5894  134.2584  156.6549 C.ar    1  UNL1        0.0845
     32 C         143.3860  134.1455  158.1048 C.ar    1  UNL1        0.0192
     33 C         143.6389  135.2242  159.1159 C.ar    1  UNL1        0.0016
     34 C         143.1427  136.6175  158.8663 C.ar    1  UNL1        0.0017
     35 C         142.6828  135.8902  157.6376 C.ar    1  UNL1        0.0031
     36 C         142.0505  135.6140  156.3058 C.ar    1  UNL1        0.0355
     37 H         142.9698  142.3430  161.3682 H       1  UNL1        0.1739
     38 H         138.4156  143.6094  153.3850 H       1  UNL1        0.1498
     39 C         145.5189  141.7622  163.2571 C.3     1  UNL1        0.2543
     40 O         144.1200  141.2775  163.0160 O.3     1  UNL1       -0.4553
@<TRIPOS>BOND
     1    39    40    1
     2    40     1    1
     3     1     2   ar
     4     2     3   ar
     5     3     4   ar
     6     4     5   ar
     7     5     6   ar
     8     6     7    1
     9     7     8    1
    10     8     9    2
    11     8    10    2
    12     8    11    1
    13    11    12   ar
    14    12    13   ar
    15    13    14   ar
    16    14    15   ar
    17    15    16   ar
    18    15    17    1
    19    17    18    2
    20    17    19   am
    21    19    20    1
    22    20    21    1
    23    21    22    1
    24    22    23   ar
    25    23    24   ar
    26    24    25   ar
    27    25    26   ar
    28    24    27    1
    29    27    28   ar
    30    28    29   ar
    31    29    30   ar
    32    30    31   ar
    33    31    32   ar
    34    32    33   ar
    35    33    34   ar
    36    34    35   ar
    37    35    36   ar
    38     6     1   ar
    39    16    11   ar
    40    26    22   ar
    41    36    27   ar
    42    34     4    1
    43    36    31   ar
    44     7    37    1
    45    19    38    1
@<TRIPOS>MOLECULE
*****
 40 45 0 0 0
SMALL
GASTEIGER

@<TRIPOS>ATOM
      1 C         138.1293  143.7031  153.8636 C.ar    1  UNL1        0.2400
      2 N         138.0878  144.9816  154.6471 N.ar    1  UNL1       -0.2090
      3 C         138.7365  145.0549  155.9976 C.ar    1  UNL1        0.1021
      4 C         139.5111  144.0376  156.8610 C.ar    1  UNL1        0.0207
      5 C         139.0517  143.4662  155.5524 C.ar    1  UNL1        0.0221
      6 C         138.8195  142.4981  154.4304 C.ar    1  UNL1        0.1178
      7 N         138.8397  141.2382  153.6167 N.pl3   1  UNL1       -0.2104
      8 S         139.1101  139.8230  153.1993 S.O2    1  UNL1        0.0737
      9 O         138.3372  140.6131  152.1853 O.2     1  UNL1       -0.1499
     10 O         138.7595  139.0426  151.9672 O.2     1  UNL1       -0.1499
     11 C         139.7739  138.1324  153.3840 C.ar    1  UNL1        0.1253
     12 C         139.4815  137.2551  152.2030 C.ar    1  UNL1        0.0202
     13 C         139.9561  135.8323  152.1898 C.ar    1  UNL1        0.0015
     14 C         140.7231  135.2867  153.3578 C.ar    1  UNL1        0.0046
     15 C         141.0155  136.1639  154.5388 C.ar    1  UNL1        0.0547
     16 C         140.5409  137.5868  154.5519 C.ar    1  UNL1        0.0247
     17 C         141.7851  135.5820  155.6873 C.2     1  UNL1        0.2459
     18 O         141.9947  134.1916  155.1648 O.2     1  UNL1       -0.2701
     19 N         142.4857  135.4576  157.0077 N.am    1  UNL1       -0.2989
     20 C         143.0414  135.8045  158.3572 C.3     1  UNL1        0.1161
     21 C         143.3920  136.5850  159.5893 C.3     1  UNL1        0.1487
     22 N         143.4995  137.7144  160.5706 N.ar    1  UNL1       -0.2476
     23 C         143.3521  139.0704  161.1946 C.ar    1  UNL1        0.0982
     24 C         142.9661  140.5060  161.3939 C.ar    1  UNL1        0.0574
     25 C         143.7395  139.8386  162.4922 C.ar    1  UNL1        0.1231
     26 N         144.0099  138.4235  162.0748 N.ar    1  UNL1       -0.1676
     27 C         142.3830  141.8659  161.1468 C.ar    1  UNL1        0.0875
     28 N         142.9947  142.0574  162.5030 N.ar    1  UNL1       -0.2239
     29 C         142.8895  143.3853  163.1925 C.ar    1  UNL1        0.1988
     30 N         142.1726  144.5219  162.5257 N.ar    1  UNL1       -0.2240
     31 C         141.5610  144.3304  161.1695 C.ar    1  UNL1        0.0845
     32 C         140.7477  145.5151  160.3423 C.ar    1  UNL1        0.0192
     33 C         140.1017  145.4329  158.9911 C.ar    1  UNL1        0.0016
     34 C         140.1480  144.1505  158.2144 C.ar    1  UNL1        0.0017
     35 C         140.8932  143.7925  159.4660 C.ar    1  UNL1        0.0031
     36 C         141.6662  143.0024  160.4801 C.ar    1  UNL1        0.0355
     37 H         138.3409  141.5477  152.8264 H       1  UNL1        0.1739
     38 H         142.7746  134.5182  156.9501 H       1  UNL1        0.1498
     39 C         135.9918  143.4841  152.4031 C.3     1  UNL1        0.2543
     40 O         137.4805  143.6299  152.5131 O.3     1  UNL1       -0.4553
@<TRIPOS>BOND
     1    39    40    1
     2    40     1    1
     3     1     2   ar
     4     2     3   ar
     5     3     4   ar
     6     4     5   ar
     7     5     6   ar
     8     6     7    1
     9     7     8    1
    10     8     9    2
    11     8    10    2
    12     8    11    1
    13    11    12   ar
    14    12    13   ar
    15    13    14   ar
    16    14    15   ar
    17    15    16   ar
    18    15    17    1
    19    17    18    2
    20    17    19   am
    21    19    20    1
    22    20    21    1
    23    21    22    1
    24    22    23   ar
    25    23    24   ar
    26    24    25   ar
    27    25    26   ar
    28    24    27    1
    29    27    28   ar
    30    28    29   ar
    31    29    30   ar
    32    30    31   ar
    33    31    32   ar
    34    32    33   ar
    35    33    34   ar
    36    34    35   ar
    37    35    36   ar
    38     6     1   ar
    39    16    11   ar
    40    26    22   ar
    41    36    27   ar
    42    34     4    1
    43    36    31   ar
    44     7    37    1
    45    19    38    1
@<TRIPOS>MOLECULE
*****
 40 45 0 0 0
SMALL
GASTEIGER

@<TRIPOS>ATOM
      1 C         141.3910  136.1241  155.2136 C.ar    1  UNL1        0.2400
      2 N         142.1469  135.3088  156.2206 N.ar    1  UNL1       -0.2090
      3 C         142.6060  135.9381  157.5026 C.ar    1  UNL1        0.1021
      4 C         142.4781  137.3567  158.0954 C.ar    1  UNL1        0.0207
      5 C         141.8350  137.2249  156.7466 C.ar    1  UNL1        0.0221
      6 C         141.0943  137.5685  155.4884 C.ar    1  UNL1        0.1178
      7 N         140.3362  138.3504  154.4569 N.pl3   1  UNL1       -0.2104
      8 S         139.6429  139.4858  153.7640 S.O2    1  UNL1        0.0737
      9 O         139.6328  138.2061  152.9816 O.2     1  UNL1       -0.1499
     10 O         138.9414  139.5931  152.4425 O.2     1  UNL1       -0.1499
     11 C         139.0322  141.1961  153.5770 C.ar    1  UNL1        0.1253
     12 C         138.3086  141.4223  152.2827 C.ar    1  UNL1        0.0202
     13 C         137.7410  142.7744  151.9673 C.ar    1  UNL1        0.0015
     14 C         137.8969  143.9002  152.9461 C.ar    1  UNL1        0.0046
     15 C         138.6204  143.6740  154.2404 C.ar    1  UNL1        0.0547
     16 C         139.1880  142.3219  154.5559 C.ar    1  UNL1        0.0247
     17 C         138.7557  144.8245  155.1933 C.2     1  UNL1        0.2459
     18 O         138.0387  145.8819  154.4072 O.2     1  UNL1       -0.2701
     19 N         139.1270  145.6270  156.4049 N.am    1  UNL1       -0.2989
     20 C         139.6941  145.9945  157.7441 C.3     1  UNL1        0.1161
     21 C         140.3956  145.8872  159.0657 C.3     1  UNL1        0.1487
     22 N         141.1553  145.3167  160.2264 N.ar    1  UNL1       -0.2476
     23 C         141.8911  144.3447  161.1004 C.ar    1  UNL1        0.0982
     24 C         142.5231  143.0768  161.5932 C.ar    1  UNL1        0.0574
     25 C         142.6086  144.2830  162.4808 C.ar    1  UNL1        0.1231
     26 N         141.9152  145.4184  161.7879 N.ar    1  UNL1       -0.1676
     27 C         142.9829  141.6501  161.6512 C.ar    1  UNL1        0.0875
     28 N         143.4907  142.1696  162.9636 N.ar    1  UNL1       -0.2239
     29 C         144.2362  141.2583  163.8931 C.ar    1  UNL1        0.1988
     30 N         144.4739  139.8276  163.5100 N.ar    1  UNL1       -0.2240
     31 C         143.9662  139.3082  162.1976 C.ar    1  UNL1        0.0845
     32 C         144.1719  137.7483  161.6744 C.ar    1  UNL1        0.0192
     33 C         143.7090  137.1272  160.3899 C.ar    1  UNL1        0.0016
     34 C         142.9538  137.9498  159.3884 C.ar    1  UNL1        0.0017
     35 C         143.2106  138.9398  160.4857 C.ar    1  UNL1        0.0031
     36 C         143.2207  140.2195  161.2682 C.ar    1  UNL1        0.0355
     37 H         140.2071  137.6455  153.7818 H       1  UNL1        0.1739
     38 H         138.7366  146.4944  156.1507 H       1  UNL1        0.1498
     39 C         141.8358  135.4857  152.7347 C.3     1  UNL1        0.2543
     40 O         140.9319  135.4947  153.9317 O.3     1  UNL1       -0.4553
@<TRIPOS>BOND
     1    39    40    1
     2    40     1    1
     3     1     2   ar
     4     2     3   ar
     5     3     4   ar
     6     4     5   ar
     7     5     6   ar
     8     6     7    1
     9     7     8    1
    10     8     9    2
    11     8    10    2
    12     8    11    1
    13    11    12   ar
    14    12    13   ar
    15    13    14   ar
    16    14    15   ar
    17    15    16   ar
    18    15    17    1
    19    17    18    2
    20    17    19   am
    21    19    20    1
    22    20    21    1
    23    21    22    1
    24    22    23   ar
    25    23    24   ar
    26    24    25   ar
    27    25    26   ar
    28    24    27    1
    29    27    28   ar
    30    28    29   ar
    31    29    30   ar
    32    30    31   ar
    33    31    32   ar
    34    32    33   ar
    35    33    34   ar
    36    34    35   ar
    37    35    36   ar
    38     6     1   ar
    39    16    11   ar
    40    26    22   ar
    41    36    27   ar
    42    34     4    1
    43    36    31   ar
    44     7    37    1
    45    19    38    1
