@<TRIPOS>MOLECULE
*****
 28 31 0 0 0
SMALL
GASTEIGER

@<TRIPOS>ATOM
      1 C         140.7690  142.0210  167.3042 C.3     1  UNL1        0.0717
      2 C         142.0994  141.3309  167.3643 C.3     1  UNL1        0.0355
      3 C         143.0346  141.6031  168.5050 C.3     1  UNL1        0.0594
      4 C         143.6162  142.1567  169.7720 C.3     1  UNL1        0.0174
      5 C         142.6199  143.1107  170.3612 C.3     1  UNL1        0.0174
      6 C         141.4225  143.1467  169.4584 C.3     1  UNL1        0.0594
      7 C         140.3737  142.9833  168.3849 C.3     1  UNL1        0.0355
      8 N         141.6789  142.2149  168.3112 N.3     1  UNL1       -0.2715
      9 N         139.8337  141.7489  166.1635 N.pl3   1  UNL1       -0.3339
     10 H         139.5118  142.4914  165.6029 H       1  UNL1        0.1468
     11 C         139.3022  138.2931  164.2861 C.ar    1  UNL1        0.0544
     12 C         138.4992  137.5383  165.3036 C.ar    1  UNL1        0.0046
     13 C         138.1409  138.1870  166.6077 C.ar    1  UNL1        0.0014
     14 C         138.5858  139.5905  166.8943 C.ar    1  UNL1        0.0143
     15 C         139.3888  140.3453  165.8768 C.ar    1  UNL1        0.0447
     16 C         139.7471  139.6966  164.5727 C.ar    1  UNL1        0.0188
     17 N         138.6960  137.6856  161.8338 N.am    1  UNL1       -0.3253
     18 C         139.6604  137.6443  162.9820 C.2     1  UNL1        0.2428
     19 O         140.9832  136.9542  162.8259 O.2     1  UNL1       -0.2704
     20 H         138.9311  137.2598  160.9779 H       1  UNL1        0.1453
     21 H         137.8279  138.1385  161.9362 H       1  UNL1        0.1453
     22 C         140.7436  141.9427  167.1705 C.3     1  UNL1        0.0991
     23 C         140.5934  142.9482  166.0675 C.ar    1  UNL1       -0.0061
     24 C         139.3407  143.7668  165.9645 C.ar    1  UNL1       -0.0029
     25 C         139.1904  144.7722  164.8616 C.ar    1  UNL1       -0.0003
     26 C         140.2928  144.9591  163.8617 C.ar    1  UNL1       -0.0000
     27 C         141.5456  144.1405  163.9648 C.ar    1  UNL1       -0.0003
     28 C         141.6958  143.1351  165.0677 C.ar    1  UNL1       -0.0029
@<TRIPOS>BOND
     1    17    18   am
     2    18    19    2
     3    18    11    1
     4    11    12   ar
     5    12    13   ar
     6    13    14   ar
     7    14    15   ar
     8    15     9    1
     9     1     9    1
    10     1     2    1
    11     3     2    1
    12     3     4    1
    13     4     5    1
    14     6     5    1
    15     6     7    1
    16     6     8    1
    17     8    22    1
    18    22    23    1
    19    23    24   ar
    20    24    25   ar
    21    25    26   ar
    22    26    27   ar
    23    27    28   ar
    24    15    16   ar
    25    16    11   ar
    26     7     1    1
    27    28    23   ar
    28     8     3    1
    29    17    20    1
    30    17    21    1
    31     9    10    1
@<TRIPOS>MOLECULE
*****
 28 31 0 0 0
SMALL
GASTEIGER

@<TRIPOS>ATOM
      1 C         141.6088  142.3110  165.8718 C.3     1  UNL1        0.0717
      2 C         140.5118  143.1776  165.3283 C.3     1  UNL1        0.0355
      3 C         140.8380  144.2966  164.3841 C.3     1  UNL1        0.0594
      4 C         141.5979  145.2511  163.5115 C.3     1  UNL1        0.0174
      5 C         143.0530  144.8964  163.5939 C.3     1  UNL1        0.0174
      6 C         143.1924  143.7226  164.5174 C.3     1  UNL1        0.0594
      7 C         143.0321  142.5633  165.4710 C.3     1  UNL1        0.0355
      8 N         141.8235  143.3519  165.0058 N.3     1  UNL1       -0.2715
      9 N         141.2826  141.1920  166.8160 N.pl3   1  UNL1       -0.3339
     10 H         141.7047  141.1591  167.7049 H       1  UNL1        0.1468
     11 C         139.5365  138.3246  164.6998 C.ar    1  UNL1        0.0544
     12 C         138.3747  137.9856  165.5860 C.ar    1  UNL1        0.0046
     13 C         138.1823  138.7154  166.8823 C.ar    1  UNL1        0.0014
     14 C         139.1516  139.7842  167.2923 C.ar    1  UNL1        0.0143
     15 C         140.3133  140.1232  166.4060 C.ar    1  UNL1        0.0447
     16 C         140.5058  139.3934  165.1098 C.ar    1  UNL1        0.0188
     17 N         138.6300  137.5769  162.3826 N.am    1  UNL1       -0.3253
     18 C         139.7289  137.5948  163.4035 C.2     1  UNL1        0.2428
     19 O         141.0201  136.8827  163.1281 O.2     1  UNL1       -0.2704
     20 H         138.7563  137.0979  161.5318 H       1  UNL1        0.1453
     21 H         137.7826  138.0442  162.5633 H       1  UNL1        0.1453
     22 C         141.4972  142.2330  165.9500 C.3     1  UNL1        0.0991
     23 C         141.7363  142.3995  167.4214 C.ar    1  UNL1       -0.0061
     24 C         140.6739  143.0048  168.2901 C.ar    1  UNL1       -0.0029
     25 C         140.9129  143.1713  169.7615 C.ar    1  UNL1       -0.0003
     26 C         142.2145  142.7325  170.3642 C.ar    1  UNL1       -0.0000
     27 C         143.2771  142.1271  169.4955 C.ar    1  UNL1       -0.0003
     28 C         143.0379  141.9607  168.0241 C.ar    1  UNL1       -0.0029
@<TRIPOS>BOND
     1    17    18   am
     2    18    19    2
     3    18    11    1
     4    11    12   ar
     5    12    13   ar
     6    13    14   ar
     7    14    15   ar
     8    15     9    1
     9     1     9    1
    10     1     2    1
    11     3     2    1
    12     3     4    1
    13     4     5    1
    14     6     5    1
    15     6     7    1
    16     6     8    1
    17     8    22    1
    18    22    23    1
    19    23    24   ar
    20    24    25   ar
    21    25    26   ar
    22    26    27   ar
    23    27    28   ar
    24    15    16   ar
    25    16    11   ar
    26     7     1    1
    27    28    23   ar
    28     8     3    1
    29    17    20    1
    30    17    21    1
    31     9    10    1
@<TRIPOS>MOLECULE
*****
 28 31 0 0 0
SMALL
GASTEIGER

@<TRIPOS>ATOM
      1 C         142.0430  141.9311  164.9649 C.3     1  UNL1        0.0717
      2 C         142.4467  140.5635  164.4993 C.3     1  UNL1        0.0355
      3 C         143.8433  140.3200  164.0094 C.3     1  UNL1        0.0594
      4 C         145.2767  140.5328  163.6221 C.3     1  UNL1        0.0174
      5 C         145.6169  141.9713  163.8769 C.3     1  UNL1        0.0174
      6 C         144.3938  142.6475  164.4216 C.3     1  UNL1        0.0594
      7 C         143.0360  143.0551  164.9406 C.3     1  UNL1        0.0355
      8 N         143.2976  141.6269  164.5035 N.3     1  UNL1       -0.2715
      9 N         140.6463  142.1747  165.4549 N.pl3   1  UNL1       -0.3339
     10 H         140.0015  142.6537  164.8857 H       1  UNL1        0.1468
     11 C         139.9944  142.0854  169.3686 C.ar    1  UNL1        0.0544
     12 C         139.4038  140.7157  169.5264 C.ar    1  UNL1        0.0046
     13 C         139.2273  139.8323  168.3271 C.ar    1  UNL1        0.0014
     14 C         139.6414  140.3186  166.9700 C.ar    1  UNL1        0.0143
     15 C         140.2321  141.6883  166.8121 C.ar    1  UNL1        0.0447
     16 C         140.4086  142.5718  168.0114 C.ar    1  UNL1        0.0188
     17 N         140.1154  144.4601  170.4157 N.am    1  UNL1       -0.3253
     18 C         140.1709  142.9688  170.5679 C.2     1  UNL1        0.2428
     19 O         140.4029  142.3610  171.9195 O.2     1  UNL1       -0.2704
     20 H         140.2313  145.0399  171.2029 H       1  UNL1        0.1453
     21 H         139.9632  144.8590  169.5286 H       1  UNL1        0.1453
     22 C         141.9010  141.8704  164.9934 C.3     1  UNL1        0.0991
     23 C         140.9442  142.6738  164.1631 C.ar    1  UNL1       -0.0061
     24 C         140.1819  142.0167  163.0509 C.ar    1  UNL1       -0.0029
     25 C         139.2252  142.8199  162.2207 C.ar    1  UNL1       -0.0003
     26 C         139.0308  144.2803  162.5026 C.ar    1  UNL1       -0.0000
     27 C         139.7933  144.9375  163.6148 C.ar    1  UNL1       -0.0003
     28 C         140.7500  144.1341  164.4451 C.ar    1  UNL1       -0.0029
@<TRIPOS>BOND
     1    17    18   am
     2    18    19    2
     3    18    11    1
     4    11    12   ar
     5    12    13   ar
     6    13    14   ar
     7    14    15   ar
     8    15     9    1
     9     1     9    1
    10     1     2    1
    11     3     2    1
    12     3     4    1
    13     4     5    1
    14     6     5    1
    15     6     7    1
    16     6     8    1
    17     8    22    1
    18    22    23    1
    19    23    24   ar
    20    24    25   ar
    21    25    26   ar
    22    26    27   ar
    23    27    28   ar
    24    15    16   ar
    25    16    11   ar
    26     7     1    1
    27    28    23   ar
    28     8     3    1
    29    17    20    1
    30    17    21    1
    31     9    10    1
@<TRIPOS>MOLECULE
*****
 28 31 0 0 0
SMALL
GASTEIGER

@<TRIPOS>ATOM
      1 C         140.4701  141.6664  166.6224 C.3     1  UNL1        0.0717
      2 C         139.8768  140.3543  167.0424 C.3     1  UNL1        0.0355
      3 C         139.4835  140.1326  168.4728 C.3     1  UNL1        0.0594
      4 C         139.2510  140.3503  169.9386 C.3     1  UNL1        0.0174
      5 C         139.7090  141.7374  170.2795 C.3     1  UNL1        0.0174
      6 C         140.2246  142.3769  169.0244 C.3     1  UNL1        0.0594
      7 C         140.6701  142.7568  167.6329 C.3     1  UNL1        0.0355
      8 N         140.0852  141.3851  167.9078 N.3     1  UNL1       -0.2715
      9 N         140.8634  141.8881  165.1919 N.pl3   1  UNL1       -0.3339
     10 H         140.3163  142.4691  164.6154 H       1  UNL1        0.1468
     11 C         143.1863  139.3371  163.2308 C.ar    1  UNL1        0.0544
     12 C         144.5438  139.8976  163.5360 C.ar    1  UNL1        0.0046
     13 C         144.6744  141.1216  164.3931 C.ar    1  UNL1        0.0014
     14 C         143.4477  141.7851  164.9451 C.ar    1  UNL1        0.0143
     15 C         142.0902  141.2246  164.6399 C.ar    1  UNL1        0.0447
     16 C         141.9595  140.0006  163.7828 C.ar    1  UNL1        0.0188
     17 N         141.8190  137.2682  162.4561 N.am    1  UNL1       -0.3253
     18 C         143.0557  138.1131  162.3737 C.2     1  UNL1        0.2428
     19 O         144.1619  137.7339  161.4341 O.2     1  UNL1       -0.2704
     20 H         141.7333  136.4649  161.8935 H       1  UNL1        0.1453
     21 H         141.0930  137.5171  163.0727 H       1  UNL1        0.1453
     22 C         140.4785  141.6067  166.4774 C.3     1  UNL1        0.0991
     23 C         139.6042  142.4294  165.5780 C.ar    1  UNL1       -0.0061
     24 C         138.4841  141.7791  164.8213 C.ar    1  UNL1       -0.0029
     25 C         137.6098  142.6017  163.9220 C.ar    1  UNL1       -0.0003
     26 C         137.8555  144.0745  163.7792 C.ar    1  UNL1       -0.0000
     27 C         138.9757  144.7248  164.5359 C.ar    1  UNL1       -0.0003
     28 C         139.8500  143.9021  165.4353 C.ar    1  UNL1       -0.0029
@<TRIPOS>BOND
     1    17    18   am
     2    18    19    2
     3    18    11    1
     4    11    12   ar
     5    12    13   ar
     6    13    14   ar
     7    14    15   ar
     8    15     9    1
     9     1     9    1
    10     1     2    1
    11     3     2    1
    12     3     4    1
    13     4     5    1
    14     6     5    1
    15     6     7    1
    16     6     8    1
    17     8    22    1
    18    22    23    1
    19    23    24   ar
    20    24    25   ar
    21    25    26   ar
    22    26    27   ar
    23    27    28   ar
    24    15    16   ar
    25    16    11   ar
    26     7     1    1
    27    28    23   ar
    28     8     3    1
    29    17    20    1
    30    17    21    1
    31     9    10    1
@<TRIPOS>MOLECULE
*****
 28 31 0 0 0
SMALL
GASTEIGER

@<TRIPOS>ATOM
      1 C         140.2179  141.7860  165.9333 C.3     1  UNL1        0.0717
      2 C         139.2378  140.8924  165.2327 C.3     1  UNL1        0.0355
      3 C         138.1714  141.4865  164.3611 C.3     1  UNL1        0.0594
      4 C         137.3166  142.4763  163.6266 C.3     1  UNL1        0.0174
      5 C         137.8326  143.8512  163.9323 C.3     1  UNL1        0.0174
      6 C         139.0063  143.7110  164.8558 C.3     1  UNL1        0.0594
      7 C         140.1316  143.2737  165.7622 C.3     1  UNL1        0.0355
      8 N         139.2157  142.2495  165.1208 N.3     1  UNL1       -0.2715
      9 N         141.2844  141.1919  166.8050 N.pl3   1  UNL1       -0.3339
     10 H         141.2313  141.2890  167.7832 H       1  UNL1        0.1468
     11 C         144.3292  140.3109  164.4170 C.ar    1  UNL1        0.0544
     12 C         144.7262  138.9656  164.9484 C.ar    1  UNL1        0.0046
     13 C         143.9760  138.3624  166.0987 C.ar    1  UNL1        0.0014
     14 C         142.8287  139.1045  166.7175 C.ar    1  UNL1        0.0143
     15 C         142.4317  140.4498  166.1861 C.ar    1  UNL1        0.0447
     16 C         143.1819  141.0530  165.0358 C.ar    1  UNL1        0.0188
     17 N         146.2308  141.8403  163.5252 N.am    1  UNL1       -0.3253
     18 C         145.0795  140.9142  163.2667 C.2     1  UNL1        0.2428
     19 O         144.6785  140.5912  161.8577 O.2     1  UNL1       -0.2704
     20 H         146.7232  142.2362  162.7702 H       1  UNL1        0.1453
     21 H         146.4939  142.0523  164.4499 H       1  UNL1        0.1453
     22 C         140.2821  141.6554  165.9924 C.3     1  UNL1        0.0991
     23 C         140.1387  141.6942  167.4850 C.ar    1  UNL1       -0.0061
     24 C         140.5910  142.9020  168.2509 C.ar    1  UNL1       -0.0029
     25 C         140.4475  142.9407  169.7434 C.ar    1  UNL1       -0.0003
     26 C         139.8518  141.7716  170.4702 C.ar    1  UNL1       -0.0000
     27 C         139.3994  140.5637  169.7044 C.ar    1  UNL1       -0.0003
     28 C         139.5429  140.5251  168.2117 C.ar    1  UNL1       -0.0029
@<TRIPOS>BOND
     1    17    18   am
     2    18    19    2
     3    18    11    1
     4    11    12   ar
     5    12    13   ar
     6    13    14   ar
     7    14    15   ar
     8    15     9    1
     9     1     9    1
    10     1     2    1
    11     3     2    1
    12     3     4    1
    13     4     5    1
    14     6     5    1
    15     6     7    1
    16     6     8    1
    17     8    22    1
    18    22    23    1
    19    23    24   ar
    20    24    25   ar
    21    25    26   ar
    22    26    27   ar
    23    27    28   ar
    24    15    16   ar
    25    16    11   ar
    26     7     1    1
    27    28    23   ar
    28     8     3    1
    29    17    20    1
    30    17    21    1
    31     9    10    1
@<TRIPOS>MOLECULE
*****
 28 31 0 0 0
SMALL
GASTEIGER

@<TRIPOS>ATOM
      1 C         140.0741  140.8177  165.1183 C.3     1  UNL1        0.0717
      2 C         139.0148  139.8283  165.5044 C.3     1  UNL1        0.0355
      3 C         138.7952  138.6011  164.6704 C.3     1  UNL1        0.0594
      4 C         138.9250  137.5679  163.5908 C.3     1  UNL1        0.0174
      5 C         140.0213  138.0018  162.6635 C.3     1  UNL1        0.0174
      6 C         140.5690  139.3031  163.1700 C.3     1  UNL1        0.0594
      7 C         140.9136  140.5798  163.8982 C.3     1  UNL1        0.0355
      8 N         139.8112  139.6735  164.4104 N.3     1  UNL1       -0.2715
      9 N         140.2938  142.0451  165.9522 N.pl3   1  UNL1       -0.3339
     10 H         139.9126  142.9075  165.6689 H       1  UNL1        0.1468
     11 C         141.2261  141.4837  169.7687 C.ar    1  UNL1        0.0544
     12 C         142.6953  141.7853  169.7489 C.ar    1  UNL1        0.0046
     13 C         143.3640  142.1735  168.4636 C.ar    1  UNL1        0.0014
     14 C         142.5635  142.2601  167.1981 C.ar    1  UNL1        0.0143
     15 C         141.0943  141.9585  167.2178 C.ar    1  UNL1        0.0447
     16 C         140.4256  141.5703  168.5031 C.ar    1  UNL1        0.0188
     17 N         140.0313  139.7024  171.2349 N.am    1  UNL1       -0.3253
     18 C         140.5574  141.0954  171.0540 C.2     1  UNL1        0.2428
     19 O         140.4147  142.1003  172.1586 O.2     1  UNL1       -0.2704
     20 H         139.5925  139.4476  172.0785 H       1  UNL1        0.1453
     21 H         140.1250  139.0429  170.5099 H       1  UNL1        0.1453
     22 C         140.0308  140.9008  165.2444 C.3     1  UNL1        0.0991
     23 C         139.6603  142.2504  164.7048 C.ar    1  UNL1       -0.0061
     24 C         138.2226  142.6772  164.6747 C.ar    1  UNL1       -0.0029
     25 C         137.8520  144.0268  164.1352 C.ar    1  UNL1       -0.0003
     26 C         138.9191  144.9497  163.6257 C.ar    1  UNL1       -0.0000
     27 C         140.3569  144.5229  163.6558 C.ar    1  UNL1       -0.0003
     28 C         140.7274  143.1732  164.1953 C.ar    1  UNL1       -0.0029
@<TRIPOS>BOND
     1    17    18   am
     2    18    19    2
     3    18    11    1
     4    11    12   ar
     5    12    13   ar
     6    13    14   ar
     7    14    15   ar
     8    15     9    1
     9     1     9    1
    10     1     2    1
    11     3     2    1
    12     3     4    1
    13     4     5    1
    14     6     5    1
    15     6     7    1
    16     6     8    1
    17     8    22    1
    18    22    23    1
    19    23    24   ar
    20    24    25   ar
    21    25    26   ar
    22    26    27   ar
    23    27    28   ar
    24    15    16   ar
    25    16    11   ar
    26     7     1    1
    27    28    23   ar
    28     8     3    1
    29    17    20    1
    30    17    21    1
    31     9    10    1
@<TRIPOS>MOLECULE
*****
 28 31 0 0 0
SMALL
GASTEIGER

@<TRIPOS>ATOM
      1 C         140.9486  140.8953  167.4579 C.3     1  UNL1        0.0717
      2 C         140.3266  141.5882  168.6339 C.3     1  UNL1        0.0355
      3 C         140.9013  141.3982  170.0063 C.3     1  UNL1        0.0594
      4 C         141.7722  140.9364  171.1369 C.3     1  UNL1        0.0174
      5 C         142.8222  140.0266  170.5713 C.3     1  UNL1        0.0174
      6 C         142.6001  139.9261  169.0913 C.3     1  UNL1        0.0594
      7 C         142.1452  140.0124  167.6544 C.3     1  UNL1        0.0355
      8 N         141.4129  140.7738  168.7421 N.3     1  UNL1       -0.2715
      9 N         140.3739  141.0852  166.0853 N.pl3   1  UNL1       -0.3339
     10 H         139.8321  140.3727  165.6756 H       1  UNL1        0.1468
     11 C         142.1924  143.8583  163.9052 C.ar    1  UNL1        0.0544
     12 C         141.1269  144.9121  163.8408 C.ar    1  UNL1        0.0046
     13 C         139.8104  144.6902  164.5246 C.ar    1  UNL1        0.0014
     14 C         139.5594  143.4147  165.2727 C.ar    1  UNL1        0.0143
     15 C         140.6249  142.3609  165.3371 C.ar    1  UNL1        0.0447
     16 C         141.9414  142.5826  164.6534 C.ar    1  UNL1        0.0188
     17 N         143.8988  145.4576  162.7736 N.am    1  UNL1       -0.3253
     18 C         143.5090  144.0801  163.2215 C.2     1  UNL1        0.2428
     19 O         144.4357  142.9244  162.9855 O.2     1  UNL1       -0.2704
     20 H         144.7629  145.6032  162.3248 H       1  UNL1        0.1453
     21 H         143.2906  146.2161  162.9284 H       1  UNL1        0.1453
     22 C         140.8383  140.9638  167.3696 C.3     1  UNL1        0.0991
     23 C         140.1423  139.8257  166.6837 C.ar    1  UNL1       -0.0061
     24 C         138.7396  139.4617  167.0708 C.ar    1  UNL1       -0.0029
     25 C         138.0437  138.3236  166.3850 C.ar    1  UNL1       -0.0003
     26 C         138.7505  137.5496  165.3120 C.ar    1  UNL1       -0.0000
     27 C         140.1533  137.9136  164.9249 C.ar    1  UNL1       -0.0003
     28 C         140.8491  139.0517  165.6108 C.ar    1  UNL1       -0.0029
@<TRIPOS>BOND
     1    17    18   am
     2    18    19    2
     3    18    11    1
     4    11    12   ar
     5    12    13   ar
     6    13    14   ar
     7    14    15   ar
     8    15     9    1
     9     1     9    1
    10     1     2    1
    11     3     2    1
    12     3     4    1
    13     4     5    1
    14     6     5    1
    15     6     7    1
    16     6     8    1
    17     8    22    1
    18    22    23    1
    19    23    24   ar
    20    24    25   ar
    21    25    26   ar
    22    26    27   ar
    23    27    28   ar
    24    15    16   ar
    25    16    11   ar
    26     7     1    1
    27    28    23   ar
    28     8     3    1
    29    17    20    1
    30    17    21    1
    31     9    10    1
@<TRIPOS>MOLECULE
*****
 28 31 0 0 0
SMALL
GASTEIGER

@<TRIPOS>ATOM
      1 C         140.3152  141.4471  166.6042 C.3     1  UNL1        0.0717
      2 C         139.6362  140.2227  167.1425 C.3     1  UNL1        0.0355
      3 C         139.3408  140.1125  168.6090 C.3     1  UNL1        0.0594
      4 C         139.2493  140.4250  170.0732 C.3     1  UNL1        0.0174
      5 C         139.8627  141.7752  170.2982 C.3     1  UNL1        0.0174
      6 C         140.3333  142.2972  168.9731 C.3     1  UNL1        0.0594
      7 C         140.6987  142.5613  167.5323 C.3     1  UNL1        0.0355
      8 N         140.0107  141.2696  167.9291 N.3     1  UNL1       -0.2715
      9 N         140.6107  141.5573  165.1376 N.pl3   1  UNL1       -0.3339
     10 H         139.8814  141.7342  164.5005 H       1  UNL1        0.1468
     11 C         144.0006  142.2409  163.1906 C.ar    1  UNL1        0.0544
     12 C         144.8310  141.0795  163.6508 C.ar    1  UNL1        0.0046
     13 C         144.2545  140.0775  164.6066 C.ar    1  UNL1        0.0014
     14 C         142.8479  140.2367  165.1022 C.ar    1  UNL1        0.0143
     15 C         142.0175  141.3980  164.6420 C.ar    1  UNL1        0.0447
     16 C         142.5938  142.4001  163.6863 C.ar    1  UNL1        0.0188
     17 N         145.3583  142.7782  161.0417 N.am    1  UNL1       -0.3253
     18 C         144.5770  143.2429  162.2348 C.2     1  UNL1        0.2428
     19 O         144.3722  144.7099  162.4722 O.2     1  UNL1       -0.2704
     20 H         145.7366  143.4359  160.4143 H       1  UNL1        0.1453
     21 H         145.4928  141.8154  160.8859 H       1  UNL1        0.1453
     22 C         140.3062  141.3798  166.4626 C.3     1  UNL1        0.0991
     23 C         139.4568  142.2558  165.5901 C.ar    1  UNL1       -0.0061
     24 C         138.4077  141.6452  164.7089 C.ar    1  UNL1       -0.0029
     25 C         137.5584  142.5211  163.8364 C.ar    1  UNL1       -0.0003
     26 C         137.7582  144.0077  163.8451 C.ar    1  UNL1       -0.0000
     27 C         138.8073  144.6184  164.7264 C.ar    1  UNL1       -0.0003
     28 C         139.6566  143.7423  165.5988 C.ar    1  UNL1       -0.0029
@<TRIPOS>BOND
     1    17    18   am
     2    18    19    2
     3    18    11    1
     4    11    12   ar
     5    12    13   ar
     6    13    14   ar
     7    14    15   ar
     8    15     9    1
     9     1     9    1
    10     1     2    1
    11     3     2    1
    12     3     4    1
    13     4     5    1
    14     6     5    1
    15     6     7    1
    16     6     8    1
    17     8    22    1
    18    22    23    1
    19    23    24   ar
    20    24    25   ar
    21    25    26   ar
    22    26    27   ar
    23    27    28   ar
    24    15    16   ar
    25    16    11   ar
    26     7     1    1
    27    28    23   ar
    28     8     3    1
    29    17    20    1
    30    17    21    1
    31     9    10    1
@<TRIPOS>MOLECULE
*****
 28 31 0 0 0
SMALL
GASTEIGER

@<TRIPOS>ATOM
      1 C         139.7443  141.4600  164.9998 C.3     1  UNL1        0.0717
      2 C         140.5918  142.5130  164.3496 C.3     1  UNL1        0.0355
      3 C         140.0166  143.3743  163.2646 C.3     1  UNL1        0.0594
      4 C         139.0646  143.9714  162.2711 C.3     1  UNL1        0.0174
      5 C         137.7538  143.2527  162.3955 C.3     1  UNL1        0.0174
      6 C         137.8958  142.2115  163.4658 C.3     1  UNL1        0.0594
      7 C         138.3215  141.2683  164.5650 C.3     1  UNL1        0.0355
      8 N         139.2943  142.2866  164.0030 N.3     1  UNL1       -0.2715
      9 N         140.3195  140.5986  166.0849 N.pl3   1  UNL1       -0.3339
     10 H         140.8626  139.8111  165.8524 H       1  UNL1        0.1468
     11 C         140.3942  142.5278  169.5522 C.ar    1  UNL1        0.0544
     12 C         139.5624  141.6143  170.4029 C.ar    1  UNL1        0.0046
     13 C         138.9829  140.3623  169.8142 C.ar    1  UNL1        0.0014
     14 C         139.2353  140.0237  168.3749 C.ar    1  UNL1        0.0143
     15 C         140.0671  140.9372  167.5243 C.ar    1  UNL1        0.0447
     16 C         140.6466  142.1892  168.1129 C.ar    1  UNL1        0.0188
     17 N         142.4127  143.8140  170.5629 N.am    1  UNL1       -0.3253
     18 C         140.9737  143.7798  170.1410 C.2     1  UNL1        0.2428
     19 O         140.1141  144.9978  170.3078 O.2     1  UNL1       -0.2704
     20 H         142.7930  144.6358  170.9493 H       1  UNL1        0.1453
     21 H         142.9769  143.0146  170.4534 H       1  UNL1        0.1453
     22 C         139.8695  141.4253  165.0880 C.3     1  UNL1        0.0991
     23 C         140.2631  140.0085  164.7916 C.ar    1  UNL1       -0.0061
     24 C         141.6802  139.6857  164.4207 C.ar    1  UNL1       -0.0029
     25 C         142.0737  138.2690  164.1243 C.ar    1  UNL1       -0.0003
     26 C         141.0502  137.1750  164.1988 C.ar    1  UNL1       -0.0000
     27 C         139.6330  137.4978  164.5697 C.ar    1  UNL1       -0.0003
     28 C         139.2395  138.9146  164.8661 C.ar    1  UNL1       -0.0029
@<TRIPOS>BOND
     1    17    18   am
     2    18    19    2
     3    18    11    1
     4    11    12   ar
     5    12    13   ar
     6    13    14   ar
     7    14    15   ar
     8    15     9    1
     9     1     9    1
    10     1     2    1
    11     3     2    1
    12     3     4    1
    13     4     5    1
    14     6     5    1
    15     6     7    1
    16     6     8    1
    17     8    22    1
    18    22    23    1
    19    23    24   ar
    20    24    25   ar
    21    25    26   ar
    22    26    27   ar
    23    27    28   ar
    24    15    16   ar
    25    16    11   ar
    26     7     1    1
    27    28    23   ar
    28     8     3    1
    29    17    20    1
    30    17    21    1
    31     9    10    1
