@<TRIPOS>MOLECULE
*****
 59 64 0 0 0
SMALL
GASTEIGER

@<TRIPOS>ATOM
      1 C         140.6835  142.6757  157.1157 C.3     1  UNL1        0.2066
      2 O         140.3324  143.8860  157.9293 O.3     1  UNL1       -0.4483
      3 C         140.2404  144.6817  159.1975 C.2     1  UNL1        0.3235
      4 O         139.6174  145.9674  158.7404 O.2     1  UNL1       -0.2496
      5 C         140.4256  144.9052  160.6691 C.3     1  UNL1        0.1563
      6 C         139.8850  146.2904  160.8670 C.3     1  UNL1        0.0196
      7 C         140.8514  144.5124  162.0527 C.2     1  UNL1        0.1629
      8 O         140.5003  145.7226  162.8663 O.2     1  UNL1       -0.2954
      9 C         141.4334  143.5808  163.0742 C.3     1  UNL1        0.0877
     10 C         141.3413  144.3765  164.3424 C.3     1  UNL1        0.0104
     11 C         142.0564  142.2951  163.5313 C.3     1  UNL1        0.1490
     12 C         142.5970  140.9100  163.3335 C.3     1  UNL1        0.1141
     13 C         142.6912  141.3352  164.7689 C.3     1  UNL1        0.0318
     14 O         143.2064  139.8355  164.1844 O.3     1  UNL1       -0.3843
     15 C         142.9481  139.6997  162.5199 C.3     1  UNL1        0.0367
     16 C         143.0402  138.9040  161.2517 C.3     1  UNL1        0.0601
     17 C         143.6632  137.6183  161.7088 C.3     1  UNL1        0.0078
     18 C         142.8550  138.6805  159.7801 C.2     1  UNL1        0.1516
     19 O         143.3955  137.2953  159.5822 O.2     1  UNL1       -0.2960
     20 C         142.4292  139.0733  158.3965 C.3     1  UNL1        0.0794
     21 C         142.7803  137.8631  157.5829 C.3     1  UNL1        0.0096
     22 C         141.8472  140.0049  157.3750 C.3     1  UNL1        0.1254
     23 N         141.9942  139.1105  156.1798 N.am    1  UNL1       -0.2426
     24 C         141.4621  139.8433  154.9841 C.2     1  UNL1        0.4049
     25 O         141.4144  139.3206  153.5789 O.2     1  UNL1       -0.2262
     26 O         140.9862  141.1907  155.4402 O.3     1  UNL1       -0.4365
     27 C         141.2241  141.2906  156.9178 C.3     1  UNL1        0.1908
     28 C         140.6325  142.2673  155.9452 C.3     1  UNL1        0.0493
     29 H         143.2537  140.1395  165.1044 H       1  UNL1        0.2103
     30 C         142.5720  137.7262  156.1803 C.3     1  UNL1        0.1105
     31 C         143.8388  137.1054  155.6706 C.3     1  UNL1        0.0939
     32 N         143.3891  135.7686  156.1811 N.3     1  UNL1       -0.2660
     33 C         142.1223  136.3894  156.6908 C.3     1  UNL1        0.0939
     34 C         143.9669  134.3843  156.1816 C.3     1  UNL1        0.0994
     35 C         143.1059  133.2119  155.8153 C.ar    1  UNL1       -0.0016
     36 C         141.9870  133.3818  154.8307 C.ar    1  UNL1        0.0179
     37 C         141.1260  132.2094  154.4644 C.ar    1  UNL1        0.1003
     38 N         141.3839  130.8673  155.0826 N.ar    1  UNL1       -0.2251
     39 C         142.5028  130.6975  156.0671 C.ar    1  UNL1        0.1620
     40 N         142.7606  129.3553  156.6852 N.ar    1  UNL1       -0.2251
     41 C         143.8794  129.1855  157.6698 C.ar    1  UNL1        0.1006
     42 C         144.7405  130.3579  158.0361 C.ar    1  UNL1        0.0208
     43 C         144.4827  131.7000  157.4180 C.ar    1  UNL1        0.0044
     44 C         143.3638  131.8699  156.4334 C.ar    1  UNL1        0.0332
     45 C         140.6284  144.4162  155.1876 C.3     1  UNL1        0.0040
     46 C         140.2578  143.0686  155.7321 C.3     1  UNL1        0.0474
     47 O         142.2416  142.5187  165.0030 O.3     1  UNL1       -0.3283
     48 C         141.4770  141.6873  165.9899 C.3     1  UNL1        0.2643
     49 O         140.3001  140.8764  165.5349 O.3     1  UNL1       -0.3311
     50 C         139.5354  140.0449  166.5218 C.3     1  UNL1        0.1194
     51 C         138.3584  139.2340  166.0668 C.3     1  UNL1        0.0322
     52 C         139.9478  140.0244  167.9639 C.3     1  UNL1        0.0482
     53 C         141.1248  140.8354  168.4190 C.3     1  UNL1        0.0921
     54 C         141.8894  141.6668  167.4320 C.3     1  UNL1        0.1815
     55 O         143.0664  142.4777  167.8871 O.3     1  UNL1       -0.3783
     56 H         143.1961  142.3527  168.8402 H       1  UNL1        0.2106
     57 N         141.5372  140.8149  169.8611 N.3     1  UNL1       -0.2692
     58 C         140.8980  141.7573  170.8374 C.3     1  UNL1        0.0897
     59 C         142.5888  139.8519  170.3267 C.3     1  UNL1        0.0897
@<TRIPOS>BOND
     1    45    46    1
     2     1    46    1
     3     1     2    1
     4     2     3    1
     5     3     4    2
     6     3     5    1
     7     5     6    1
     8     5     7    1
     9     7     8    2
    10     7     9    1
    11     9    10    1
    12     9    11    1
    13    11    47    1
    14    48    47    1
    15    48    49    1
    16    49    50    1
    17    50    51    1
    18    50    52    1
    19    52    53    1
    20    53    57    1
    21    57    58    1
    22    57    59    1
    23    53    54    1
    24    54    55    1
    25    11    12    1
    26    12    13    1
    27    12    14    1
    28    12    15    1
    29    15    16    1
    30    16    17    1
    31    16    18    1
    32    18    19    2
    33    18    20    1
    34    20    21    1
    35    20    22    1
    36    22    23    1
    37    23    30    1
    38    30    31    1
    39    31    32    1
    40    32    34    1
    41    34    35    1
    42    35    36   ar
    43    36    37   ar
    44    37    38   ar
    45    38    39   ar
    46    39    40   ar
    47    40    41   ar
    48    41    42   ar
    49    42    43   ar
    50    43    44   ar
    51    32    33    1
    52    23    24   am
    53    24    25    2
    54    24    26    1
    55    26    27    1
    56    27    28    1
    57    27     1    1
    58    54    48    1
    59    27    22    1
    60    33    30    1
    61    44    35   ar
    62    44    39   ar
    63    55    56    1
    64    14    29    1
@<TRIPOS>MOLECULE
*****
 59 64 0 0 0
SMALL
GASTEIGER

@<TRIPOS>ATOM
      1 C         140.0507  143.6327  157.5195 C.3     1  UNL1        0.2066
      2 O         139.9034  144.6145  158.6439 O.3     1  UNL1       -0.4483
      3 C         140.0390  145.0704  160.0666 C.2     1  UNL1        0.3235
      4 O         139.4637  146.4552  160.0296 O.2     1  UNL1       -0.2496
      5 C         140.4307  144.9099  161.5055 C.3     1  UNL1        0.1563
      6 C         140.0297  146.2232  162.1091 C.3     1  UNL1        0.0196
      7 C         141.0007  144.1649  162.6760 C.2     1  UNL1        0.1629
      8 O         140.8535  145.1467  163.8004 O.2     1  UNL1       -0.2954
      9 C         141.6364  142.9830  163.3461 C.3     1  UNL1        0.0877
     10 C         141.7720  143.4388  164.7687 C.3     1  UNL1        0.0104
     11 C         142.2117  141.5982  163.3830 C.3     1  UNL1        0.1490
     12 C         142.6127  140.2847  162.7795 C.3     1  UNL1        0.1141
     13 C         142.9253  140.3324  164.2458 C.3     1  UNL1        0.0318
     14 O         143.2421  139.0061  163.2474 O.3     1  UNL1       -0.3843
     15 C         142.7599  139.3029  161.6551 C.3     1  UNL1        0.0367
     16 C         142.6244  138.8471  160.2326 C.3     1  UNL1        0.0601
     17 C         143.1997  137.4623  160.2695 C.3     1  UNL1        0.0078
     18 C         142.2327  139.0076  158.7935 C.2     1  UNL1        0.1516
     19 O         142.6337  137.6942  158.1899 O.2     1  UNL1       -0.2960
     20 C         141.6626  139.7525  157.6230 C.3     1  UNL1        0.0794
     21 C         141.8099  138.7707  156.4986 C.3     1  UNL1        0.0096
     22 C         141.0270  140.9345  156.9529 C.3     1  UNL1        0.1254
     23 N         140.9476  140.3625  155.5685 N.am    1  UNL1       -0.2426
     24 C         140.3232  141.3938  154.6760 C.2     1  UNL1        0.4049
     25 O         140.0528  141.2423  153.2084 O.2     1  UNL1       -0.2262
     26 O         140.0168  142.6031  155.5088 O.3     1  UNL1       -0.4365
     27 C         140.4517  142.3193  156.9160 C.3     1  UNL1        0.1908
     28 C         139.8164  143.5331  156.3052 C.3     1  UNL1        0.0493
     29 H         143.4319  139.0676  164.1967 H       1  UNL1        0.2103
     30 C         141.4112  138.9987  155.1502 C.3     1  UNL1        0.1105
     31 C         142.7175  138.4139  154.7013 C.3     1  UNL1        0.0939
     32 N         142.0668  137.0699  154.5585 N.3     1  UNL1       -0.2660
     33 C         140.7605  137.6547  155.0074 C.3     1  UNL1        0.0939
     34 C         142.5305  135.7061  154.1401 C.3     1  UNL1        0.0994
     35 C         142.6653  134.6142  155.1597 C.ar    1  UNL1       -0.0016
     36 C         143.3288  134.8945  156.4755 C.ar    1  UNL1        0.0179
     37 C         143.4637  133.8026  157.4951 C.ar    1  UNL1        0.1003
     38 N         142.9351  132.4304  157.1989 N.ar    1  UNL1       -0.2251
     39 C         142.2716  132.1501  155.8831 C.ar    1  UNL1        0.1620
     40 N         141.7431  130.7779  155.5869 N.ar    1  UNL1       -0.2251
     41 C         141.0797  130.4976  154.2712 C.ar    1  UNL1        0.1006
     42 C         140.9448  131.5896  153.2515 C.ar    1  UNL1        0.0208
     43 C         141.4733  132.9617  153.5477 C.ar    1  UNL1        0.0044
     44 C         142.1368  133.2421  154.8635 C.ar    1  UNL1        0.0332
     45 C         139.8706  145.8056  156.1068 C.3     1  UNL1        0.0040
     46 C         139.4806  144.3777  156.3490 C.3     1  UNL1        0.0474
     47 O         142.6033  141.4377  164.8221 O.3     1  UNL1       -0.3283
     48 C         141.6161  140.8939  165.8118 C.3     1  UNL1        0.2643
     49 O         140.3719  140.2081  165.3307 O.3     1  UNL1       -0.3311
     50 C         139.3846  139.6643  166.3205 C.3     1  UNL1        0.1194
     51 C         138.1404  138.9785  165.8394 C.3     1  UNL1        0.0322
     52 C         139.6416  139.8064  167.7915 C.3     1  UNL1        0.0482
     53 C         140.8859  140.4922  168.2727 C.3     1  UNL1        0.0921
     54 C         141.8731  141.0360  167.2828 C.3     1  UNL1        0.1815
     55 O         143.1174  141.7218  167.7640 O.3     1  UNL1       -0.3783
     56 H         143.1286  141.7283  168.7339 H       1  UNL1        0.2106
     57 N         141.1429  140.6343  169.7437 N.3     1  UNL1       -0.2692
     58 C         142.1093  139.7140  170.4285 C.3     1  UNL1        0.0897
     59 C         140.4335  141.6967  170.5298 C.3     1  UNL1        0.0897
@<TRIPOS>BOND
     1    45    46    1
     2     1    46    1
     3     1     2    1
     4     2     3    1
     5     3     4    2
     6     3     5    1
     7     5     6    1
     8     5     7    1
     9     7     8    2
    10     7     9    1
    11     9    10    1
    12     9    11    1
    13    11    47    1
    14    48    47    1
    15    48    49    1
    16    49    50    1
    17    50    51    1
    18    50    52    1
    19    52    53    1
    20    53    57    1
    21    57    58    1
    22    57    59    1
    23    53    54    1
    24    54    55    1
    25    11    12    1
    26    12    13    1
    27    12    14    1
    28    12    15    1
    29    15    16    1
    30    16    17    1
    31    16    18    1
    32    18    19    2
    33    18    20    1
    34    20    21    1
    35    20    22    1
    36    22    23    1
    37    23    30    1
    38    30    31    1
    39    31    32    1
    40    32    34    1
    41    34    35    1
    42    35    36   ar
    43    36    37   ar
    44    37    38   ar
    45    38    39   ar
    46    39    40   ar
    47    40    41   ar
    48    41    42   ar
    49    42    43   ar
    50    43    44   ar
    51    32    33    1
    52    23    24   am
    53    24    25    2
    54    24    26    1
    55    26    27    1
    56    27    28    1
    57    27     1    1
    58    54    48    1
    59    27    22    1
    60    33    30    1
    61    44    35   ar
    62    44    39   ar
    63    55    56    1
    64    14    29    1
@<TRIPOS>MOLECULE
*****
 59 64 0 0 0
SMALL
GASTEIGER

@<TRIPOS>ATOM
      1 C         140.8140  144.7016  157.7687 C.3     1  UNL1        0.2066
      2 O         141.2158  144.6620  156.3240 O.3     1  UNL1       -0.4483
      3 C         141.7509  144.0025  155.0876 C.2     1  UNL1        0.3235
      4 O         141.6895  145.1023  154.0694 O.2     1  UNL1       -0.2496
      5 C         142.3132  142.8535  154.3044 C.3     1  UNL1        0.1563
      6 C         142.5021  143.4418  152.9376 C.3     1  UNL1        0.0196
      7 C         142.7915  141.4426  154.1294 C.2     1  UNL1        0.1629
      8 O         143.1932  141.4031  152.6848 O.2     1  UNL1       -0.2954
      9 C         143.0909  140.0492  154.5974 C.3     1  UNL1        0.0877
     10 C         143.6260  139.3897  153.3609 C.3     1  UNL1        0.0104
     11 C         143.1523  138.9495  155.6156 C.3     1  UNL1        0.1490
     12 C         142.9634  138.3610  156.9823 C.3     1  UNL1        0.1141
     13 C         143.5292  137.3539  156.0255 C.3     1  UNL1        0.0318
     14 O         143.1879  137.0367  157.6500 O.3     1  UNL1       -0.3843
     15 C         142.5616  138.4006  158.4270 C.3     1  UNL1        0.0367
     16 C         142.0266  139.0601  159.6633 C.3     1  UNL1        0.0601
     17 C         142.0879  137.9603  160.6815 C.3     1  UNL1        0.0078
     18 C         141.4642  140.2091  160.4466 C.2     1  UNL1        0.1516
     19 O         141.2752  139.6208  161.8134 O.2     1  UNL1       -0.2960
     20 C         140.9859  141.6200  160.6216 C.3     1  UNL1        0.0794
     21 C         140.5842  141.6595  162.0662 C.3     1  UNL1        0.0096
     22 C         140.6865  143.0134  160.1536 C.3     1  UNL1        0.1254
     23 N         140.1701  143.5557  161.4534 N.am    1  UNL1       -0.2426
     24 C         139.7897  144.9907  161.2385 C.2     1  UNL1        0.4049
     25 O         139.2269  145.9182  162.2743 O.2     1  UNL1       -0.2262
     26 O         140.0709  145.3352  159.8059 O.3     1  UNL1       -0.4365
     27 C         140.6251  144.1131  159.1354 C.3     1  UNL1        0.1908
     28 C         140.3475  145.4890  158.6063 C.3     1  UNL1        0.0493
     29 H         143.5531  136.4085  157.0075 H       1  UNL1        0.2103
     30 C         140.0546  142.7964  162.7418 C.3     1  UNL1        0.1105
     31 C         139.0611  141.8323  163.3193 C.3     1  UNL1        0.0939
     32 N         139.8911  141.7225  164.5639 N.3     1  UNL1       -0.2660
     33 C         140.8846  142.6866  163.9864 C.3     1  UNL1        0.0939
     34 C         139.7755  140.9631  165.8523 C.3     1  UNL1        0.0994
     35 C         140.9535  140.2002  166.3817 C.ar    1  UNL1       -0.0016
     36 C         141.7508  139.3205  165.4649 C.ar    1  UNL1        0.0179
     37 C         142.9288  138.5576  165.9943 C.ar    1  UNL1        0.1003
     38 N         143.3096  138.6745  167.4404 N.ar    1  UNL1       -0.2251
     39 C         142.5124  139.5543  168.3572 C.ar    1  UNL1        0.1620
     40 N         142.8932  139.6711  169.8033 N.ar    1  UNL1       -0.2251
     41 C         142.0960  140.5508  170.7201 C.ar    1  UNL1        0.1006
     42 C         140.9179  141.3137  170.1907 C.ar    1  UNL1        0.0208
     43 C         140.5371  141.1969  168.7446 C.ar    1  UNL1        0.0044
     44 C         141.3343  140.3171  167.8278 C.ar    1  UNL1        0.0332
     45 C         139.5966  146.7971  156.8324 C.3     1  UNL1        0.0040
     46 C         140.3358  146.1125  157.9436 C.3     1  UNL1        0.0474
     47 O         143.7146  137.8004  154.8323 O.3     1  UNL1       -0.3283
     48 C         142.8222  136.6698  154.4140 C.3     1  UNL1        0.2643
     49 O         141.5881  136.9471  153.6077 O.3     1  UNL1       -0.3311
     50 C         140.6956  135.8164  153.1893 C.3     1  UNL1        0.1194
     51 C         139.4616  136.0938  152.3830 C.3     1  UNL1        0.0322
     52 C         141.0372  134.4083  153.5772 C.3     1  UNL1        0.0482
     53 C         142.2713  134.1309  154.3835 C.3     1  UNL1        0.0921
     54 C         143.1638  135.2616  154.8019 C.3     1  UNL1        0.1815
     55 O         144.3979  134.9842  155.6082 O.3     1  UNL1       -0.3783
     56 H         144.4699  134.0307  155.7713 H       1  UNL1        0.2106
     57 N         142.6129  132.7227  154.7715 N.3     1  UNL1       -0.2692
     58 C         143.0991  131.7557  153.7331 C.3     1  UNL1        0.0897
     59 C         142.4681  132.2817  156.1979 C.3     1  UNL1        0.0897
@<TRIPOS>BOND
     1    45    46    1
     2     1    46    1
     3     1     2    1
     4     2     3    1
     5     3     4    2
     6     3     5    1
     7     5     6    1
     8     5     7    1
     9     7     8    2
    10     7     9    1
    11     9    10    1
    12     9    11    1
    13    11    47    1
    14    48    47    1
    15    48    49    1
    16    49    50    1
    17    50    51    1
    18    50    52    1
    19    52    53    1
    20    53    57    1
    21    57    58    1
    22    57    59    1
    23    53    54    1
    24    54    55    1
    25    11    12    1
    26    12    13    1
    27    12    14    1
    28    12    15    1
    29    15    16    1
    30    16    17    1
    31    16    18    1
    32    18    19    2
    33    18    20    1
    34    20    21    1
    35    20    22    1
    36    22    23    1
    37    23    30    1
    38    30    31    1
    39    31    32    1
    40    32    34    1
    41    34    35    1
    42    35    36   ar
    43    36    37   ar
    44    37    38   ar
    45    38    39   ar
    46    39    40   ar
    47    40    41   ar
    48    41    42   ar
    49    42    43   ar
    50    43    44   ar
    51    32    33    1
    52    23    24   am
    53    24    25    2
    54    24    26    1
    55    26    27    1
    56    27    28    1
    57    27     1    1
    58    54    48    1
    59    27    22    1
    60    33    30    1
    61    44    35   ar
    62    44    39   ar
    63    55    56    1
    64    14    29    1
@<TRIPOS>MOLECULE
*****
 59 64 0 0 0
SMALL
GASTEIGER

@<TRIPOS>ATOM
      1 C         140.1971  144.8687  157.1925 C.3     1  UNL1        0.2066
      2 O         140.2675  144.6974  155.7039 O.3     1  UNL1       -0.4483
      3 C         140.2596  143.9000  154.4334 C.2     1  UNL1        0.3235
      4 O         140.4321  144.9520  153.3781 O.2     1  UNL1       -0.2496
      5 C         140.1750  142.6346  153.6327 C.3     1  UNL1        0.1563
      6 C         140.3098  143.1232  152.2209 C.3     1  UNL1        0.0196
      7 C         140.0304  141.1516  153.4600 C.2     1  UNL1        0.1629
      8 O         140.1008  140.9803  151.9715 O.2     1  UNL1       -0.2954
      9 C         139.8544  139.7448  153.9500 C.3     1  UNL1        0.0877
     10 C         139.8466  138.9474  152.6794 C.3     1  UNL1        0.0104
     11 C         139.6820  138.6928  155.0053 C.3     1  UNL1        0.1490
     12 C         139.5472  138.2040  156.4170 C.3     1  UNL1        0.1141
     13 C         139.4870  137.0705  155.4365 C.3     1  UNL1        0.0318
     14 O         139.3684  136.8871  157.1123 O.3     1  UNL1       -0.3843
     15 C         139.4767  138.3754  157.9055 C.3     1  UNL1        0.0367
     16 C         139.4846  139.1726  159.1760 C.3     1  UNL1        0.0601
     17 C         139.3121  138.1207  160.2313 C.3     1  UNL1        0.0078
     18 C         139.5692  140.4381  159.9768 C.2     1  UNL1        0.1516
     19 O         139.4344  139.9495  161.3886 O.2     1  UNL1       -0.2960
     20 C         139.7138  141.9212  160.1495 C.3     1  UNL1        0.0794
     21 C         139.6434  142.0924  161.6379 C.3     1  UNL1        0.0096
     22 C         139.8898  143.3280  159.6595 C.3     1  UNL1        0.1254
     23 N         139.8816  144.0091  160.9960 N.am    1  UNL1       -0.2426
     24 C         140.0490  145.4820  160.7666 C.2     1  UNL1        0.4049
     25 O         140.0965  146.5399  161.8289 O.2     1  UNL1       -0.2262
     26 O         140.1607  145.7111  159.2885 O.3     1  UNL1       -0.4365
     27 C         140.0623  144.3799  158.6042 C.3     1  UNL1        0.1908
     28 C         140.2395  145.7630  158.0514 C.3     1  UNL1        0.0493
     29 H         139.3332  136.1759  156.4536 H       1  UNL1        0.2103
     30 C         139.7323  143.3355  162.3279 C.3     1  UNL1        0.1105
     31 C         138.5933  143.0986  163.2748 C.3     1  UNL1        0.0939
     32 N         139.5210  142.3830  164.2115 N.3     1  UNL1       -0.2660
     33 C         140.6599  142.6199  163.2645 C.3     1  UNL1        0.0939
     34 C         139.3715  141.7094  165.5435 C.3     1  UNL1        0.0994
     35 C         140.5246  140.9551  166.1361 C.ar    1  UNL1       -0.0016
     36 C         141.0633  139.7404  165.4401 C.ar    1  UNL1        0.0179
     37 C         142.2164  138.9860  166.0327 C.ar    1  UNL1        0.1003
     38 N         142.8308  139.4464  167.3214 N.ar    1  UNL1       -0.2251
     39 C         142.2922  140.6610  168.0174 C.ar    1  UNL1        0.1620
     40 N         142.9067  141.1213  169.3060 N.ar    1  UNL1       -0.2251
     41 C         142.3680  142.3360  170.0020 C.ar    1  UNL1        0.1006
     42 C         141.2148  143.0904  169.4093 C.ar    1  UNL1        0.0208
     43 C         140.6004  142.6301  168.1207 C.ar    1  UNL1        0.0044
     44 C         141.1391  141.4154  167.4247 C.ar    1  UNL1        0.0332
     45 C         139.3981  147.2838  156.6646 C.3     1  UNL1        0.0040
     46 C         140.3417  146.3516  157.3650 C.3     1  UNL1        0.0474
     47 O         139.5973  137.4273  154.2044 O.3     1  UNL1       -0.3283
     48 C         140.5885  136.3256  154.4360 C.3     1  UNL1        0.2643
     49 O         141.5832  136.4341  155.5534 O.3     1  UNL1       -0.3311
     50 C         142.5744  135.3323  155.7850 C.3     1  UNL1        0.1194
     51 C         143.5691  135.4409  156.9025 C.3     1  UNL1        0.0322
     52 C         142.5708  134.1219  154.8991 C.3     1  UNL1        0.0482
     53 C         141.5761  134.0132  153.7816 C.3     1  UNL1        0.0921
     54 C         140.5849  135.1151  153.5501 C.3     1  UNL1        0.1815
     55 O         139.5902  135.0065  152.4325 O.3     1  UNL1       -0.3783
     56 H         139.7234  134.1692  151.9613 H       1  UNL1        0.2106
     57 N         141.5726  132.8028  152.8957 N.3     1  UNL1       -0.2692
     58 C         140.4188  131.8454  152.9386 C.3     1  UNL1        0.0897
     59 C         142.7229  132.5499  151.9669 C.3     1  UNL1        0.0897
@<TRIPOS>BOND
     1    45    46    1
     2     1    46    1
     3     1     2    1
     4     2     3    1
     5     3     4    2
     6     3     5    1
     7     5     6    1
     8     5     7    1
     9     7     8    2
    10     7     9    1
    11     9    10    1
    12     9    11    1
    13    11    47    1
    14    48    47    1
    15    48    49    1
    16    49    50    1
    17    50    51    1
    18    50    52    1
    19    52    53    1
    20    53    57    1
    21    57    58    1
    22    57    59    1
    23    53    54    1
    24    54    55    1
    25    11    12    1
    26    12    13    1
    27    12    14    1
    28    12    15    1
    29    15    16    1
    30    16    17    1
    31    16    18    1
    32    18    19    2
    33    18    20    1
    34    20    21    1
    35    20    22    1
    36    22    23    1
    37    23    30    1
    38    30    31    1
    39    31    32    1
    40    32    34    1
    41    34    35    1
    42    35    36   ar
    43    36    37   ar
    44    37    38   ar
    45    38    39   ar
    46    39    40   ar
    47    40    41   ar
    48    41    42   ar
    49    42    43   ar
    50    43    44   ar
    51    32    33    1
    52    23    24   am
    53    24    25    2
    54    24    26    1
    55    26    27    1
    56    27    28    1
    57    27     1    1
    58    54    48    1
    59    27    22    1
    60    33    30    1
    61    44    35   ar
    62    44    39   ar
    63    55    56    1
    64    14    29    1
@<TRIPOS>MOLECULE
*****
 59 64 0 0 0
SMALL
GASTEIGER

@<TRIPOS>ATOM
      1 C         141.1524  143.5855  157.0975 C.3     1  UNL1        0.2066
      2 O         140.6160  144.6442  158.0148 O.3     1  UNL1       -0.4483
      3 C         140.1684  145.1830  159.3413 C.2     1  UNL1        0.3235
      4 O         139.7696  146.5911  159.0122 O.2     1  UNL1       -0.2496
      5 C         139.8984  145.0951  160.8140 C.3     1  UNL1        0.1563
      6 C         139.3794  146.4641  161.1406 C.3     1  UNL1        0.0196
      7 C         139.8592  144.3981  162.1417 C.2     1  UNL1        0.1629
      8 O         139.3229  145.4568  163.0589 O.2     1  UNL1       -0.2954
      9 C         140.0589  143.2297  163.0610 C.3     1  UNL1        0.0877
     10 C         139.6113  143.7686  164.3875 C.3     1  UNL1        0.0104
     11 C         140.4576  141.8217  163.3901 C.3     1  UNL1        0.1490
     12 C         140.9766  140.4526  163.0637 C.3     1  UNL1        0.1141
     13 C         140.6394  140.5781  164.5199 C.3     1  UNL1        0.0318
     14 O         141.2492  139.1753  163.8013 O.3     1  UNL1       -0.3843
     15 C         141.5130  139.3939  162.1464 C.3     1  UNL1        0.0367
     16 C         141.9606  138.8551  160.8201 C.3     1  UNL1        0.0601
     17 C         142.3593  137.4471  161.1491 C.3     1  UNL1        0.0078
     18 C         142.2306  138.9430  159.3472 C.2     1  UNL1        0.1516
     19 O         142.7496  137.5741  159.0207 O.2     1  UNL1       -0.2960
     20 C         142.2698  139.6401  158.0196 C.3     1  UNL1        0.0794
     21 C         142.8061  138.5814  157.1023 C.3     1  UNL1        0.0096
     22 C         142.0701  140.8084  157.1002 C.3     1  UNL1        0.1254
     23 N         142.5434  140.1534  155.8365 N.am    1  UNL1       -0.2426
     24 C         142.4371  141.1566  154.7264 C.2     1  UNL1        0.4049
     25 O         142.8052  140.9253  153.2908 O.2     1  UNL1       -0.2262
     26 O         141.8982  142.4316  155.3041 O.3     1  UNL1       -0.4365
     27 C         141.6714  142.2165  156.7711 C.3     1  UNL1        0.1908
     28 C         141.4493  143.4204  155.9042 C.3     1  UNL1        0.0493
     29 H         141.0219  139.2878  164.7375 H       1  UNL1        0.2103
     30 C         143.0364  138.7427  155.7058 C.3     1  UNL1        0.1105
     31 C         144.3852  138.0973  155.5870 C.3     1  UNL1        0.0939
     32 N         143.7336  136.7478  155.5211 N.3     1  UNL1       -0.2660
     33 C         142.3848  137.3933  155.6399 C.3     1  UNL1        0.0939
     34 C         144.2267  135.3372  155.3904 C.3     1  UNL1        0.0994
     35 C         143.2490  134.2151  155.2038 C.ar    1  UNL1       -0.0016
     36 C         142.1162  134.3613  154.2313 C.ar    1  UNL1        0.0179
     37 C         141.1385  133.2392  154.0446 C.ar    1  UNL1        0.1003
     38 N         141.2935  131.9709  154.8304 N.ar    1  UNL1       -0.2251
     39 C         142.4262  131.8247  155.8028 C.ar    1  UNL1        0.1620
     40 N         142.5810  130.5564  156.5885 N.ar    1  UNL1       -0.2251
     41 C         143.7138  130.4102  157.5609 C.ar    1  UNL1        0.1006
     42 C         144.6916  131.5323  157.7476 C.ar    1  UNL1        0.0208
     43 C         144.5366  132.8006  156.9619 C.ar    1  UNL1        0.0044
     44 C         143.4039  132.9468  155.9895 C.ar    1  UNL1        0.0332
     45 C         139.9956  145.0506  155.2906 C.3     1  UNL1        0.0040
     46 C         141.1915  144.2826  155.7700 C.3     1  UNL1        0.0474
     47 O         140.1876  141.7338  164.8630 O.3     1  UNL1       -0.3283
     48 C         141.3007  141.9538  165.8440 C.3     1  UNL1        0.2643
     49 O         142.5698  142.6197  165.4015 O.3     1  UNL1       -0.3311
     50 C         143.6830  142.8397  166.3825 C.3     1  UNL1        0.1194
     51 C         144.9521  143.5056  165.9400 C.3     1  UNL1        0.0322
     52 C         143.5270  142.3938  167.8062 C.3     1  UNL1        0.0482
     53 C         142.2579  141.7278  168.2488 C.3     1  UNL1        0.0921
     54 C         141.1447  141.5078  167.2677 C.3     1  UNL1        0.1815
     55 O         139.8756  140.8419  167.7103 O.3     1  UNL1       -0.3783
     56 H         139.9390  140.6188  168.6522 H       1  UNL1        0.2106
     57 N         142.1019  141.2819  169.6725 N.3     1  UNL1       -0.2692
     58 C         142.5665  139.9170  170.0860 C.3     1  UNL1        0.0897
     59 C         141.4814  142.2010  170.6826 C.3     1  UNL1        0.0897
@<TRIPOS>BOND
     1    45    46    1
     2     1    46    1
     3     1     2    1
     4     2     3    1
     5     3     4    2
     6     3     5    1
     7     5     6    1
     8     5     7    1
     9     7     8    2
    10     7     9    1
    11     9    10    1
    12     9    11    1
    13    11    47    1
    14    48    47    1
    15    48    49    1
    16    49    50    1
    17    50    51    1
    18    50    52    1
    19    52    53    1
    20    53    57    1
    21    57    58    1
    22    57    59    1
    23    53    54    1
    24    54    55    1
    25    11    12    1
    26    12    13    1
    27    12    14    1
    28    12    15    1
    29    15    16    1
    30    16    17    1
    31    16    18    1
    32    18    19    2
    33    18    20    1
    34    20    21    1
    35    20    22    1
    36    22    23    1
    37    23    30    1
    38    30    31    1
    39    31    32    1
    40    32    34    1
    41    34    35    1
    42    35    36   ar
    43    36    37   ar
    44    37    38   ar
    45    38    39   ar
    46    39    40   ar
    47    40    41   ar
    48    41    42   ar
    49    42    43   ar
    50    43    44   ar
    51    32    33    1
    52    23    24   am
    53    24    25    2
    54    24    26    1
    55    26    27    1
    56    27    28    1
    57    27     1    1
    58    54    48    1
    59    27    22    1
    60    33    30    1
    61    44    35   ar
    62    44    39   ar
    63    55    56    1
    64    14    29    1
@<TRIPOS>MOLECULE
*****
 59 64 0 0 0
SMALL
GASTEIGER

@<TRIPOS>ATOM
      1 C         141.6374  140.0364  156.3640 C.3     1  UNL1        0.2066
      2 O         142.1409  138.8915  157.1922 O.3     1  UNL1       -0.4483
      3 C         142.5780  138.2365  158.4689 C.2     1  UNL1        0.3235
      4 O         142.9216  136.8442  158.0291 O.2     1  UNL1       -0.2496
      5 C         142.8621  138.2012  159.9412 C.3     1  UNL1        0.1563
      6 C         143.3323  136.7932  160.1568 C.3     1  UNL1        0.0196
      7 C         142.9371  138.7925  161.3178 C.2     1  UNL1        0.1629
      8 O         143.4406  137.6477  162.1459 O.2     1  UNL1       -0.2954
      9 C         142.7880  139.8933  162.3257 C.3     1  UNL1        0.0877
     10 C         143.2251  139.2384  163.6024 C.3     1  UNL1        0.0104
     11 C         142.4443  141.2856  162.7655 C.3     1  UNL1        0.1490
     12 C         141.9742  142.6937  162.5500 C.3     1  UNL1        0.1141
     13 C         142.3174  142.4446  163.9888 C.3     1  UNL1        0.0318
     14 O         141.7548  143.9197  163.3858 O.3     1  UNL1       -0.3843
     15 C         141.4707  143.8386  161.7219 C.3     1  UNL1        0.0367
     16 C         141.0336  144.4935  160.4453 C.3     1  UNL1        0.0601
     17 C         140.6899  145.8858  160.8850 C.3     1  UNL1        0.0078
     18 C         140.7494  144.5288  158.9728 C.2     1  UNL1        0.1516
     19 O         140.2793  145.9368  158.7572 O.2     1  UNL1       -0.2960
     20 C         140.6744  143.9376  157.5963 C.3     1  UNL1        0.0794
     21 C         140.1710  145.0824  156.7682 C.3     1  UNL1        0.0096
     22 C         140.8236  142.8367  156.5883 C.3     1  UNL1        0.1254
     23 N         140.3656  143.6037  155.3833 N.am    1  UNL1       -0.2426
     24 C         140.4262  142.6854  154.1988 C.2     1  UNL1        0.4049
     25 O         140.0562  143.0394  152.7889 O.2     1  UNL1       -0.2262
     26 O         140.9216  141.3509  154.6718 O.3     1  UNL1       -0.4365
     27 C         141.1672  141.4444  156.1486 C.3     1  UNL1        0.1908
     28 C         141.3378  140.3033  155.1900 C.3     1  UNL1        0.0493
     29 H         141.9848  143.7276  164.3083 H       1  UNL1        0.2103
     30 C         139.9244  145.0372  155.3659 C.3     1  UNL1        0.1105
     31 C         138.6025  145.7390  155.2663 C.3     1  UNL1        0.0939
     32 N         139.3005  147.0646  155.3413 N.3     1  UNL1       -0.2660
     33 C         140.6225  146.3628  155.4409 C.3     1  UNL1        0.0939
     34 C         138.8593  148.4981  155.3239 C.3     1  UNL1        0.0994
     35 C         139.3691  149.4270  154.2622 C.ar    1  UNL1       -0.0016
     36 C         140.0408  148.8732  153.0406 C.ar    1  UNL1        0.0179
     37 C         140.5506  149.8020  151.9789 C.ar    1  UNL1        0.1003
     38 N         140.3887  151.2847  152.1387 N.ar    1  UNL1       -0.2251
     39 C         139.7171  151.8385  153.3603 C.ar    1  UNL1        0.1620
     40 N         139.5553  153.3212  153.5201 N.ar    1  UNL1       -0.2251
     41 C         138.8837  153.8750  154.7416 C.ar    1  UNL1        0.1006
     42 C         138.3738  152.9460  155.8034 C.ar    1  UNL1        0.0208
     43 C         138.5356  151.4635  155.6436 C.ar    1  UNL1        0.0044
     44 C         139.2073  150.9096  154.4220 C.ar    1  UNL1        0.0332
     45 C         142.7072  138.6347  154.4561 C.3     1  UNL1        0.0040
     46 C         141.5624  139.4451  154.9876 C.3     1  UNL1        0.0474
     47 O         142.7285  141.2503  164.2379 O.3     1  UNL1       -0.3283
     48 C         141.6382  140.8921  165.2038 C.3     1  UNL1        0.2643
     49 O         140.3505  140.3111  164.6996 O.3     1  UNL1       -0.3311
     50 C         139.2602  139.9529  165.6654 C.3     1  UNL1        0.1194
     51 C         137.9725  139.3719  165.1612 C.3     1  UNL1        0.0322
     52 C         139.4576  140.1757  167.1356 C.3     1  UNL1        0.0482
     53 C         140.7453  140.7567  167.6399 C.3     1  UNL1        0.0921
     54 C         141.8356  141.1149  166.6740 C.3     1  UNL1        0.1815
     55 O         143.1233  141.6959  167.1783 O.3     1  UNL1       -0.3783
     56 H         143.0866  141.7735  168.1445 H       1  UNL1        0.2106
     57 N         140.9427  140.9795  169.1101 N.3     1  UNL1       -0.2692
     58 C         140.5743  142.2970  169.7251 C.3     1  UNL1        0.0897
     59 C         141.5085  139.8846  169.9652 C.3     1  UNL1        0.0897
@<TRIPOS>BOND
     1    45    46    1
     2     1    46    1
     3     1     2    1
     4     2     3    1
     5     3     4    2
     6     3     5    1
     7     5     6    1
     8     5     7    1
     9     7     8    2
    10     7     9    1
    11     9    10    1
    12     9    11    1
    13    11    47    1
    14    48    47    1
    15    48    49    1
    16    49    50    1
    17    50    51    1
    18    50    52    1
    19    52    53    1
    20    53    57    1
    21    57    58    1
    22    57    59    1
    23    53    54    1
    24    54    55    1
    25    11    12    1
    26    12    13    1
    27    12    14    1
    28    12    15    1
    29    15    16    1
    30    16    17    1
    31    16    18    1
    32    18    19    2
    33    18    20    1
    34    20    21    1
    35    20    22    1
    36    22    23    1
    37    23    30    1
    38    30    31    1
    39    31    32    1
    40    32    34    1
    41    34    35    1
    42    35    36   ar
    43    36    37   ar
    44    37    38   ar
    45    38    39   ar
    46    39    40   ar
    47    40    41   ar
    48    41    42   ar
    49    42    43   ar
    50    43    44   ar
    51    32    33    1
    52    23    24   am
    53    24    25    2
    54    24    26    1
    55    26    27    1
    56    27    28    1
    57    27     1    1
    58    54    48    1
    59    27    22    1
    60    33    30    1
    61    44    35   ar
    62    44    39   ar
    63    55    56    1
    64    14    29    1
@<TRIPOS>MOLECULE
*****
 59 64 0 0 0
SMALL
GASTEIGER

@<TRIPOS>ATOM
      1 C         141.0346  145.2764  156.7344 C.3     1  UNL1        0.2066
      2 O         141.5116  145.1256  155.3203 O.3     1  UNL1       -0.4483
      3 C         142.1224  144.3775  154.1725 C.2     1  UNL1        0.3235
      4 O         142.0935  145.3867  153.0631 O.2     1  UNL1       -0.2496
      5 C         142.7461  143.1804  153.5186 C.3     1  UNL1        0.1563
      6 C         142.9947  143.6566  152.1181 C.3     1  UNL1        0.0196
      7 C         143.2592  141.7712  153.4878 C.2     1  UNL1        0.1629
      8 O         143.7361  141.6204  152.0737 O.2     1  UNL1       -0.2954
      9 C         143.5599  140.4291  154.0865 C.3     1  UNL1        0.0877
     10 C         144.1708  139.6810  152.9387 C.3     1  UNL1        0.0104
     11 C         143.5889  139.4199  155.1958 C.3     1  UNL1        0.1490
     12 C         143.3403  138.9435  156.5963 C.3     1  UNL1        0.1141
     13 C         143.9738  137.8733  155.7577 C.3     1  UNL1        0.0318
     14 O         143.5545  137.6852  157.3840 O.3     1  UNL1       -0.3843
     15 C         142.8633  139.0944  158.0105 C.3     1  UNL1        0.0367
     16 C         142.2525  139.8424  159.1581 C.3     1  UNL1        0.0601
     17 C         142.2815  138.8332  160.2675 C.3     1  UNL1        0.0078
     18 C         141.6288  141.0396  159.8121 C.2     1  UNL1        0.1516
     19 O         141.3801  140.5633  161.2126 O.2     1  UNL1       -0.2960
     20 C         141.1157  142.4488  159.8429 C.3     1  UNL1        0.0794
     21 C         140.6388  142.5996  161.2570 C.3     1  UNL1        0.0096
     22 C         140.8149  143.7909  159.2443 C.3     1  UNL1        0.1254
     23 N         140.2217  144.4279  160.4659 N.am    1  UNL1       -0.2426
     24 C         139.8261  145.8307  160.1115 C.2     1  UNL1        0.4049
     25 O         139.1930  146.8284  161.0355 O.2     1  UNL1       -0.2262
     26 O         140.1749  146.0607  158.6709 O.3     1  UNL1       -0.4365
     27 C         140.7860  144.8000  158.1349 C.3     1  UNL1        0.1908
     28 C         140.5105  146.1201  157.4779 C.3     1  UNL1        0.0493
     29 H         143.9644  137.0141  156.8161 H       1  UNL1        0.2103
     30 C         140.0536  143.7764  161.8065 C.3     1  UNL1        0.1105
     31 C         139.0159  142.8936  162.4341 C.3     1  UNL1        0.0939
     32 N         139.8159  142.8550  163.7024 N.3     1  UNL1       -0.2660
     33 C         140.8536  143.7377  163.0748 C.3     1  UNL1        0.0939
     34 C         139.6477  142.2035  165.0431 C.3     1  UNL1        0.0994
     35 C         140.6244  141.1598  165.4976 C.ar    1  UNL1       -0.0016
     36 C         141.6111  141.4776  166.5818 C.ar    1  UNL1        0.0179
     37 C         142.5879  140.4339  167.0364 C.ar    1  UNL1        0.1003
     38 N         142.5779  139.0724  166.4068 N.ar    1  UNL1       -0.2251
     39 C         141.5912  138.7547  165.3227 C.ar    1  UNL1        0.1620
     40 N         141.5813  137.3932  164.6931 N.ar    1  UNL1       -0.2251
     41 C         140.5945  137.0754  163.6090 C.ar    1  UNL1        0.1006
     42 C         139.6177  138.1192  163.1544 C.ar    1  UNL1        0.0208
     43 C         139.6277  139.4806  163.7839 C.ar    1  UNL1        0.0044
     44 C         140.6144  139.7984  164.8681 C.ar    1  UNL1        0.0332
     45 C         139.2194  147.0243  156.1023 C.3     1  UNL1        0.0040
     46 C         140.5216  146.6856  156.7651 C.3     1  UNL1        0.0474
     47 O         144.2126  138.2227  154.5419 O.3     1  UNL1       -0.3283
     48 C         143.4893  136.9087  154.5373 C.3     1  UNL1        0.2643
     49 O         144.0277  135.7534  155.3280 O.3     1  UNL1       -0.3311
     50 C         143.3043  134.4393  155.3235 C.3     1  UNL1        0.1194
     51 C         143.8427  133.2840  156.1142 C.3     1  UNL1        0.0322
     52 C         142.0425  134.2806  154.5281 C.3     1  UNL1        0.0482
     53 C         141.5040  135.4359  153.7373 C.3     1  UNL1        0.0921
     54 C         142.2274  136.7500  153.7419 C.3     1  UNL1        0.1815
     55 O         141.6889  137.9053  152.9511 O.3     1  UNL1       -0.3783
     56 H         140.8741  137.6359  152.4991 H       1  UNL1        0.2106
     57 N         140.2421  135.2771  152.9420 N.3     1  UNL1       -0.2692
     58 C         140.1025  134.1377  151.9766 C.3     1  UNL1        0.0897
     59 C         139.1200  136.2579  153.1121 C.3     1  UNL1        0.0897
@<TRIPOS>BOND
     1    45    46    1
     2     1    46    1
     3     1     2    1
     4     2     3    1
     5     3     4    2
     6     3     5    1
     7     5     6    1
     8     5     7    1
     9     7     8    2
    10     7     9    1
    11     9    10    1
    12     9    11    1
    13    11    47    1
    14    48    47    1
    15    48    49    1
    16    49    50    1
    17    50    51    1
    18    50    52    1
    19    52    53    1
    20    53    57    1
    21    57    58    1
    22    57    59    1
    23    53    54    1
    24    54    55    1
    25    11    12    1
    26    12    13    1
    27    12    14    1
    28    12    15    1
    29    15    16    1
    30    16    17    1
    31    16    18    1
    32    18    19    2
    33    18    20    1
    34    20    21    1
    35    20    22    1
    36    22    23    1
    37    23    30    1
    38    30    31    1
    39    31    32    1
    40    32    34    1
    41    34    35    1
    42    35    36   ar
    43    36    37   ar
    44    37    38   ar
    45    38    39   ar
    46    39    40   ar
    47    40    41   ar
    48    41    42   ar
    49    42    43   ar
    50    43    44   ar
    51    32    33    1
    52    23    24   am
    53    24    25    2
    54    24    26    1
    55    26    27    1
    56    27    28    1
    57    27     1    1
    58    54    48    1
    59    27    22    1
    60    33    30    1
    61    44    35   ar
    62    44    39   ar
    63    55    56    1
    64    14    29    1
@<TRIPOS>MOLECULE
*****
 59 64 0 0 0
SMALL
GASTEIGER

@<TRIPOS>ATOM
      1 C         141.9059  139.5400  156.2320 C.3     1  UNL1        0.2066
      2 O         142.3230  138.5189  157.2487 O.3     1  UNL1       -0.4483
      3 C         142.6929  138.0570  158.6270 C.2     1  UNL1        0.3235
      4 O         142.9636  136.5951  158.4277 O.2     1  UNL1       -0.2496
      5 C         142.9422  138.2456  160.0940 C.3     1  UNL1        0.1563
      6 C         143.3240  136.8678  160.5476 C.3     1  UNL1        0.0196
      7 C         143.0217  139.0474  161.3592 C.2     1  UNL1        0.1629
      8 O         143.4388  138.0264  162.3758 O.2     1  UNL1       -0.2954
      9 C         142.9155  140.3037  162.1720 C.3     1  UNL1        0.0877
     10 C         143.2854  139.8417  163.5503 C.3     1  UNL1        0.0104
     11 C         142.6448  141.7655  162.3713 C.3     1  UNL1        0.1490
     12 C         142.2631  143.1435  161.9178 C.3     1  UNL1        0.1141
     13 C         142.5595  143.1128  163.3879 C.3     1  UNL1        0.0318
     14 O         142.0980  144.4990  162.5384 O.3     1  UNL1       -0.3843
     15 C         141.8460  144.1645  160.9012 C.3     1  UNL1        0.0367
     16 C         141.4762  144.6264  159.5229 C.3     1  UNL1        0.0601
     17 C         141.2054  146.0883  159.7223 C.3     1  UNL1        0.0078
     18 C         141.2268  144.4378  158.0558 C.2     1  UNL1        0.1516
     19 O         140.8451  145.8157  157.6022 O.2     1  UNL1       -0.2960
     20 C         141.1473  143.6360  156.7906 C.3     1  UNL1        0.0794
     21 C         140.7302  144.6570  155.7740 C.3     1  UNL1        0.0096
     22 C         141.2535  142.3797  155.9778 C.3     1  UNL1        0.1254
     23 N         140.8678  142.9648  154.6516 N.am    1  UNL1       -0.2426
     24 C         140.9002  141.8645  153.6325 C.2     1  UNL1        0.4049
     25 O         140.5826  142.0047  152.1733 O.2     1  UNL1       -0.2262
     26 O         141.3059  140.5995  154.3290 O.3     1  UNL1       -0.4365
     27 C         141.5242  140.9179  155.7785 C.3     1  UNL1        0.1908
     28 C         141.6484  139.6288  155.0216 C.3     1  UNL1        0.0493
     29 H         142.2960  144.4468  163.4865 H       1  UNL1        0.2103
     30 C         140.5122  144.3984  154.3903 C.3     1  UNL1        0.1105
     31 C         139.2307  145.1702  154.2804 C.3     1  UNL1        0.0939
     32 N         140.0092  146.4258  154.0207 N.3     1  UNL1       -0.2660
     33 C         141.2907  145.6539  154.1306 C.3     1  UNL1        0.0939
     34 C         139.6535  147.8594  153.7594 C.3     1  UNL1        0.0994
     35 C         139.2493  148.7511  154.8958 C.ar    1  UNL1       -0.0016
     36 C         138.8351  148.1530  156.2077 C.ar    1  UNL1        0.0179
     37 C         138.4309  149.0447  157.3441 C.ar    1  UNL1        0.1003
     38 N         138.4408  150.5344  157.1687 N.ar    1  UNL1       -0.2251
     39 C         138.8549  151.1324  155.8569 C.ar    1  UNL1        0.1620
     40 N         138.8647  152.6221  155.6816 N.ar    1  UNL1       -0.2251
     41 C         139.2789  153.2201  154.3698 C.ar    1  UNL1        0.1006
     42 C         139.6831  152.3284  153.2333 C.ar    1  UNL1        0.0208
     43 C         139.6733  150.8388  153.4086 C.ar    1  UNL1        0.0044
     44 C         139.2591  150.2407  154.7205 C.ar    1  UNL1        0.0332
     45 C         142.9734  137.8605  154.5618 C.3     1  UNL1        0.0040
     46 C         141.8265  138.7382  154.9669 C.3     1  UNL1        0.0474
     47 O         142.8942  141.9542  163.8384 O.3     1  UNL1       -0.3283
     48 C         141.7645  142.3365  164.7481 C.3     1  UNL1        0.2643
     49 O         140.5483  143.0140  164.1897 O.3     1  UNL1       -0.3311
     50 C         139.4186  143.3965  165.0994 C.3     1  UNL1        0.1194
     51 C         138.2024  144.0740  164.5410 C.3     1  UNL1        0.0322
     52 C         139.5050  143.1013  166.5675 C.3     1  UNL1        0.0482
     53 C         140.7213  142.4238  167.1260 C.3     1  UNL1        0.0921
     54 C         141.8510  142.0414  166.2162 C.3     1  UNL1        0.1815
     55 O         143.0672  141.3639  166.7747 O.3     1  UNL1       -0.3783
     56 H         142.9621  141.2485  167.7320 H       1  UNL1        0.2106
     57 N         140.8077  142.1287  168.5941 N.3     1  UNL1       -0.2692
     58 C         141.3489  143.1626  169.5364 C.3     1  UNL1        0.0897
     59 C         140.3530  140.7995  169.1199 C.3     1  UNL1        0.0897
@<TRIPOS>BOND
     1    45    46    1
     2     1    46    1
     3     1     2    1
     4     2     3    1
     5     3     4    2
     6     3     5    1
     7     5     6    1
     8     5     7    1
     9     7     8    2
    10     7     9    1
    11     9    10    1
    12     9    11    1
    13    11    47    1
    14    48    47    1
    15    48    49    1
    16    49    50    1
    17    50    51    1
    18    50    52    1
    19    52    53    1
    20    53    57    1
    21    57    58    1
    22    57    59    1
    23    53    54    1
    24    54    55    1
    25    11    12    1
    26    12    13    1
    27    12    14    1
    28    12    15    1
    29    15    16    1
    30    16    17    1
    31    16    18    1
    32    18    19    2
    33    18    20    1
    34    20    21    1
    35    20    22    1
    36    22    23    1
    37    23    30    1
    38    30    31    1
    39    31    32    1
    40    32    34    1
    41    34    35    1
    42    35    36   ar
    43    36    37   ar
    44    37    38   ar
    45    38    39   ar
    46    39    40   ar
    47    40    41   ar
    48    41    42   ar
    49    42    43   ar
    50    43    44   ar
    51    32    33    1
    52    23    24   am
    53    24    25    2
    54    24    26    1
    55    26    27    1
    56    27    28    1
    57    27     1    1
    58    54    48    1
    59    27    22    1
    60    33    30    1
    61    44    35   ar
    62    44    39   ar
    63    55    56    1
    64    14    29    1
@<TRIPOS>MOLECULE
*****
 59 64 0 0 0
SMALL
GASTEIGER

@<TRIPOS>ATOM
      1 C         140.0709  145.1023  157.2863 C.3     1  UNL1        0.2066
      2 O         140.0827  144.9720  155.7920 O.3     1  UNL1       -0.4483
      3 C         140.0530  144.2075  154.5018 C.2     1  UNL1        0.3235
      4 O         140.1329  145.2924  153.4691 O.2     1  UNL1       -0.2496
      5 C         139.9878  142.9602  153.6713 C.3     1  UNL1        0.1563
      6 C         140.0386  143.4899  152.2689 C.3     1  UNL1        0.0196
      7 C         139.9000  141.4770  153.4648 C.2     1  UNL1        0.1629
      8 O         139.9117  141.3468  151.9705 O.2     1  UNL1       -0.2954
      9 C         139.8069  140.0519  153.9234 C.3     1  UNL1        0.0877
     10 C         139.7772  139.2874  152.6332 C.3     1  UNL1        0.0104
     11 C         139.7270  138.9670  154.9561 C.3     1  UNL1        0.1490
     12 C         139.6762  138.4371  156.3586 C.3     1  UNL1        0.1141
     13 C         139.6217  137.3272  155.3510 C.3     1  UNL1        0.0318
     14 O         139.5855  137.0963  157.0248 O.3     1  UNL1       -0.3843
     15 C         139.6644  138.5674  157.8529 C.3     1  UNL1        0.0367
     16 C         139.6941  139.3319  159.1430 C.3     1  UNL1        0.0601
     17 C         139.6142  138.2470  160.1758 C.3     1  UNL1        0.0078
     18 C         139.7593  140.5792  159.9736 C.2     1  UNL1        0.1516
     19 O         139.7084  140.0495  161.3760 O.2     1  UNL1       -0.2960
     20 C         139.8471  142.0624  160.1801 C.3     1  UNL1        0.0794
     21 C         139.8354  142.1926  161.6743 C.3     1  UNL1        0.0096
     22 C         139.9402  143.4875  159.7215 C.3     1  UNL1        0.1254
     23 N         139.9618  144.1336  161.0751 N.am    1  UNL1       -0.2426
     24 C         140.0550  145.6178  160.8789 C.2     1  UNL1        0.4049
     25 O         140.1036  146.6496  161.9666 O.2     1  UNL1       -0.2262
     26 O         140.0910  145.8890  159.4041 O.3     1  UNL1       -0.4365
     27 C         140.0200  144.5725  158.6888 C.3     1  UNL1        0.1908
     28 C         140.1126  145.9756  158.1666 C.3     1  UNL1        0.0493
     29 H         139.5520  136.4012  156.3492 H       1  UNL1        0.2103
     30 C         139.9009  143.4206  162.3934 C.3     1  UNL1        0.1105
     31 C         138.8166  142.7627  163.1943 C.3     1  UNL1        0.0939
     32 N         139.8147  142.4123  164.2577 N.3     1  UNL1       -0.2660
     33 C         140.8990  143.0702  163.4568 C.3     1  UNL1        0.0939
     34 C         139.7537  141.6993  165.5761 C.3     1  UNL1        0.0994
     35 C         139.3643  140.2516  165.6286 C.ar    1  UNL1       -0.0016
     36 C         138.2032  139.8175  166.4732 C.ar    1  UNL1        0.0179
     37 C         137.8138  138.3699  166.5257 C.ar    1  UNL1        0.1003
     38 N         138.5855  137.3564  165.7336 N.ar    1  UNL1       -0.2251
     39 C         139.7466  137.7906  164.8890 C.ar    1  UNL1        0.1620
     40 N         140.5182  136.7771  164.0969 N.ar    1  UNL1       -0.2251
     41 C         141.6793  137.2113  163.2523 C.ar    1  UNL1        0.1006
     42 C         142.0687  138.6590  163.1997 C.ar    1  UNL1        0.0208
     43 C         141.2971  139.6724  163.9918 C.ar    1  UNL1        0.0044
     44 C         140.1359  139.2382  164.8365 C.ar    1  UNL1        0.0332
     45 C         139.5358  147.5193  156.4980 C.3     1  UNL1        0.0040
     46 C         140.1587  146.5854  157.4928 C.3     1  UNL1        0.0474
     47 O         139.6618  137.7196  154.1256 O.3     1  UNL1       -0.3283
     48 C         140.7373  136.6811  154.2464 C.3     1  UNL1        0.2643
     49 O         142.0164  137.0053  154.9596 O.3     1  UNL1       -0.3311
     50 C         143.0919  135.9667  155.0804 C.3     1  UNL1        0.1194
     51 C         144.3711  136.2910  155.7936 C.3     1  UNL1        0.0322
     52 C         142.8883  134.6038  154.4880 C.3     1  UNL1        0.0482
     53 C         141.6092  134.2794  153.7748 C.3     1  UNL1        0.0921
     54 C         140.5337  135.3181  153.6540 C.3     1  UNL1        0.1815
     55 O         139.2545  134.9937  152.9408 O.3     1  UNL1       -0.3783
     56 H         139.2857  134.0785  152.6211 H       1  UNL1        0.2106
     57 N         141.4056  132.9164  153.1824 N.3     1  UNL1       -0.2692
     58 C         140.4946  132.7393  152.0040 C.3     1  UNL1        0.0897
     59 C         142.1130  131.7307  153.7686 C.3     1  UNL1        0.0897
@<TRIPOS>BOND
     1    45    46    1
     2     1    46    1
     3     1     2    1
     4     2     3    1
     5     3     4    2
     6     3     5    1
     7     5     6    1
     8     5     7    1
     9     7     8    2
    10     7     9    1
    11     9    10    1
    12     9    11    1
    13    11    47    1
    14    48    47    1
    15    48    49    1
    16    49    50    1
    17    50    51    1
    18    50    52    1
    19    52    53    1
    20    53    57    1
    21    57    58    1
    22    57    59    1
    23    53    54    1
    24    54    55    1
    25    11    12    1
    26    12    13    1
    27    12    14    1
    28    12    15    1
    29    15    16    1
    30    16    17    1
    31    16    18    1
    32    18    19    2
    33    18    20    1
    34    20    21    1
    35    20    22    1
    36    22    23    1
    37    23    30    1
    38    30    31    1
    39    31    32    1
    40    32    34    1
    41    34    35    1
    42    35    36   ar
    43    36    37   ar
    44    37    38   ar
    45    38    39   ar
    46    39    40   ar
    47    40    41   ar
    48    41    42   ar
    49    42    43   ar
    50    43    44   ar
    51    32    33    1
    52    23    24   am
    53    24    25    2
    54    24    26    1
    55    26    27    1
    56    27    28    1
    57    27     1    1
    58    54    48    1
    59    27    22    1
    60    33    30    1
    61    44    35   ar
    62    44    39   ar
    63    55    56    1
    64    14    29    1
