@<TRIPOS>MOLECULE
*****
 30 34 0 0 0
SMALL
GASTEIGER

@<TRIPOS>ATOM
      1 C         139.7588  139.4475  164.8931 C.ar    1  UNL1        0.0344
      2 C         139.1537  140.3651  163.8724 C.ar    1  UNL1        0.0061
      3 C         138.9595  139.8937  162.4617 C.ar    1  UNL1        0.0370
      4 C         139.3703  138.5048  162.0718 C.ar    1  UNL1        0.1384
      5 C         139.9753  137.5872  163.0924 C.ar    1  UNL1        0.0370
      6 C         140.1696  138.0585  164.5031 C.ar    1  UNL1        0.0061
      7 C         137.7937  138.6644  167.0203 C.3     1  UNL1        0.1350
      8 N         138.9705  139.5273  167.3674 N.ar    1  UNL1       -0.2786
      9 C         139.9531  139.9188  166.3038 C.ar    1  UNL1        0.1460
     10 N         141.1300  140.7816  166.6509 N.ar    1  UNL1       -0.2272
     11 C         141.3243  141.2530  168.0617 C.ar    1  UNL1        0.0980
     12 C         142.5011  142.1158  168.4088 C.ar    1  UNL1        0.0754
     13 CL        143.4837  142.5073  167.3452 Cl      1  UNL1       -0.0807
     14 C         142.6954  142.5871  169.8195 C.ar    1  UNL1        0.0129
     15 C         141.7128  142.1956  170.8831 C.ar    1  UNL1        0.0011
     16 C         140.5360  141.3327  170.5360 C.ar    1  UNL1        0.0063
     17 C         140.3417  140.8614  169.1253 C.ar    1  UNL1        0.0747
     18 C         139.1648  139.9986  168.7781 C.ar    1  UNL1        0.2634
     19 O         138.1822  139.6070  169.8417 O.2     1  UNL1       -0.2669
     20 O         139.1759  138.0334  160.6610 O.3     1  UNL1       -0.4791
     21 C         140.2446  138.2734  159.6362 C.3     1  UNL1        0.1687
     22 C         141.6695  138.4576  160.0674 C.3     1  UNL1        0.0609
     23 C         142.7381  138.6975  159.0425 C.3     1  UNL1        0.0758
     24 N         142.3820  138.7532  157.5864 N.3     1  UNL1       -0.2737
     25 C         140.9572  138.5690  157.1553 C.3     1  UNL1        0.0758
     26 C         139.8885  138.3291  158.1802 C.3     1  UNL1        0.0609
     27 C         143.4507  138.9932  156.5616 C.3     1  UNL1        0.0575
     28 C         143.9955  138.2212  155.3966 C.3     1  UNL1        0.0160
     29 C         144.9621  139.3325  155.1123 C.3     1  UNL1        0.0028
     30 C         144.4173  140.1044  156.2773 C.3     1  UNL1        0.0160
@<TRIPOS>BOND
     1     7     8    1
     2     8     9   ar
     3     9     1    1
     4     1     2   ar
     5     2     3   ar
     6     3     4   ar
     7     4    20    1
     8    20    21    1
     9    21    22    1
    10    22    23    1
    11    23    24    1
    12    24    27    1
    13    27    28    1
    14    28    29    1
    15    29    30    1
    16    24    25    1
    17    25    26    1
    18     4     5   ar
    19     5     6   ar
    20     9    10   ar
    21    10    11   ar
    22    11    12   ar
    23    12    13    1
    24    12    14   ar
    25    14    15   ar
    26    15    16   ar
    27    16    17   ar
    28    17    18   ar
    29    18    19    2
    30    18     8   ar
    31     6     1   ar
    32    17    11   ar
    33    26    21    1
    34    30    27    1
@<TRIPOS>MOLECULE
*****
 30 34 0 0 0
SMALL
GASTEIGER

@<TRIPOS>ATOM
      1 C         140.9461  139.3963  160.2679 C.ar    1  UNL1        0.0344
      2 C         142.3964  139.0682  160.4647 C.ar    1  UNL1        0.0061
      3 C         143.1538  138.3440  159.3914 C.ar    1  UNL1        0.0370
      4 C         142.4608  137.9480  158.1214 C.ar    1  UNL1        0.1384
      5 C         141.0104  138.2762  157.9246 C.ar    1  UNL1        0.0370
      6 C         140.2531  139.0003  158.9979 C.ar    1  UNL1        0.0061
      7 C         139.6922  137.8578  162.5175 C.3     1  UNL1        0.1350
      8 N         139.5617  139.3512  162.4660 N.ar    1  UNL1       -0.2786
      9 C         140.1886  140.1205  161.3412 C.ar    1  UNL1        0.1460
     10 N         140.0581  141.6139  161.2897 N.ar    1  UNL1       -0.2272
     11 C         139.3006  142.3381  162.3630 C.ar    1  UNL1        0.0980
     12 C         139.1701  143.8315  162.3114 C.ar    1  UNL1        0.0754
     13 CL        139.7970  144.6008  161.1866 Cl      1  UNL1       -0.0807
     14 C         138.4127  144.5556  163.3847 C.ar    1  UNL1        0.0129
     15 C         137.7858  143.7863  164.5095 C.ar    1  UNL1        0.0011
     16 C         137.9163  142.2929  164.5610 C.ar    1  UNL1        0.0063
     17 C         138.6737  141.5688  163.4878 C.ar    1  UNL1        0.0747
     18 C         138.8043  140.0753  163.5393 C.ar    1  UNL1        0.2634
     19 O         138.1774  139.3061  164.6641 O.2     1  UNL1       -0.2669
     20 O         143.2182  137.2238  157.0481 O.3     1  UNL1       -0.4791
     21 C         142.8011  135.8428  156.6374 C.3     1  UNL1        0.1687
     22 C         141.8017  135.6581  155.5341 C.3     1  UNL1        0.0609
     23 C         141.3846  134.2771  155.1234 C.3     1  UNL1        0.0758
     24 N         141.9669  133.0806  155.8159 N.3     1  UNL1       -0.2737
     25 C         142.9663  133.2653  156.9192 C.3     1  UNL1        0.0758
     26 C         143.3834  134.6464  157.3299 C.3     1  UNL1        0.0609
     27 C         141.5498  131.6996  155.4052 C.3     1  UNL1        0.0575
     28 C         140.3787  131.1205  154.6683 C.3     1  UNL1        0.0160
     29 C         140.9599  129.7465  154.8243 C.3     1  UNL1        0.0028
     30 C         142.1311  130.3256  155.5612 C.3     1  UNL1        0.0160
@<TRIPOS>BOND
     1     7     8    1
     2     8     9   ar
     3     9     1    1
     4     1     2   ar
     5     2     3   ar
     6     3     4   ar
     7     4    20    1
     8    20    21    1
     9    21    22    1
    10    22    23    1
    11    23    24    1
    12    24    27    1
    13    27    28    1
    14    28    29    1
    15    29    30    1
    16    24    25    1
    17    25    26    1
    18     4     5   ar
    19     5     6   ar
    20     9    10   ar
    21    10    11   ar
    22    11    12   ar
    23    12    13    1
    24    12    14   ar
    25    14    15   ar
    26    15    16   ar
    27    16    17   ar
    28    17    18   ar
    29    18    19    2
    30    18     8   ar
    31     6     1   ar
    32    17    11   ar
    33    26    21    1
    34    30    27    1
@<TRIPOS>MOLECULE
*****
 30 34 0 0 0
SMALL
GASTEIGER

@<TRIPOS>ATOM
      1 C         138.2940  140.0824  159.9423 C.ar    1  UNL1        0.0344
      2 C         137.7114  140.5805  161.2316 C.ar    1  UNL1        0.0061
      3 C         137.9206  139.8050  162.4983 C.ar    1  UNL1        0.0370
      4 C         138.7126  138.5313  162.4757 C.ar    1  UNL1        0.1384
      5 C         139.2952  138.0331  161.1865 C.ar    1  UNL1        0.0370
      6 C         139.0860  138.8086  159.9197 C.ar    1  UNL1        0.0061
      7 C         140.2044  142.2696  159.1897 C.3     1  UNL1        0.1350
      8 N         139.0399  141.9516  158.2992 N.ar    1  UNL1       -0.2786
      9 C         138.0848  140.8579  158.6754 C.ar    1  UNL1        0.1460
     10 N         136.9204  140.5398  157.7850 N.ar    1  UNL1       -0.2272
     11 C         136.7111  141.3154  156.5181 C.ar    1  UNL1        0.0980
     12 C         135.5468  140.9973  155.6276 C.ar    1  UNL1        0.0754
     13 CL        134.5916  139.9036  156.0039 Cl      1  UNL1       -0.0807
     14 C         135.3376  141.7728  154.3609 C.ar    1  UNL1        0.0129
     15 C         136.2927  142.8665  153.9846 C.ar    1  UNL1        0.0011
     16 C         137.4571  143.1846  154.8751 C.ar    1  UNL1        0.0063
     17 C         137.6663  142.4090  156.1418 C.ar    1  UNL1        0.0747
     18 C         138.8307  142.7271  157.0324 C.ar    1  UNL1        0.2634
     19 O         139.7859  143.8208  156.6561 O.2     1  UNL1       -0.2669
     20 O         138.9218  137.7557  163.7426 O.3     1  UNL1       -0.4791
     21 C         139.1814  138.4791  165.0307 C.3     1  UNL1        0.1687
     22 C         138.1393  138.4871  166.1096 C.3     1  UNL1        0.0609
     23 C         138.3988  139.2105  167.3977 C.3     1  UNL1        0.0758
     24 N         139.7005  139.9261  167.6069 N.3     1  UNL1       -0.2737
     25 C         140.7426  139.9181  166.5280 C.3     1  UNL1        0.0758
     26 C         140.4830  139.1946  165.2399 C.3     1  UNL1        0.0609
     27 C         139.9600  140.6495  168.8950 C.3     1  UNL1        0.0575
     28 C         140.3230  142.0567  169.2667 C.3     1  UNL1        0.0160
     29 C         140.3271  141.6727  170.7167 C.3     1  UNL1        0.0028
     30 C         139.9641  140.2655  170.3450 C.3     1  UNL1        0.0160
@<TRIPOS>BOND
     1     7     8    1
     2     8     9   ar
     3     9     1    1
     4     1     2   ar
     5     2     3   ar
     6     3     4   ar
     7     4    20    1
     8    20    21    1
     9    21    22    1
    10    22    23    1
    11    23    24    1
    12    24    27    1
    13    27    28    1
    14    28    29    1
    15    29    30    1
    16    24    25    1
    17    25    26    1
    18     4     5   ar
    19     5     6   ar
    20     9    10   ar
    21    10    11   ar
    22    11    12   ar
    23    12    13    1
    24    12    14   ar
    25    14    15   ar
    26    15    16   ar
    27    16    17   ar
    28    17    18   ar
    29    18    19    2
    30    18     8   ar
    31     6     1   ar
    32    17    11   ar
    33    26    21    1
    34    30    27    1
@<TRIPOS>MOLECULE
*****
 30 34 0 0 0
SMALL
GASTEIGER

@<TRIPOS>ATOM
      1 C         142.6310  138.4598  159.7570 C.ar    1  UNL1        0.0344
      2 C         142.4245  137.6524  161.0041 C.ar    1  UNL1        0.0061
      3 C         143.0831  138.0698  162.2854 C.ar    1  UNL1        0.0370
      4 C         143.9483  139.2947  162.3196 C.ar    1  UNL1        0.1384
      5 C         144.1548  140.1021  161.0725 C.ar    1  UNL1        0.0370
      6 C         143.4962  139.6847  159.7912 C.ar    1  UNL1        0.0061
      7 C         139.9216  139.5328  159.0443 C.3     1  UNL1        0.1350
      8 N         140.6176  138.5789  158.1192 N.ar    1  UNL1       -0.2786
      9 C         141.9723  138.0424  158.4755 C.ar    1  UNL1        0.1460
     10 N         142.6683  137.0885  157.5505 N.ar    1  UNL1       -0.2272
     11 C         142.0096  136.6711  156.2691 C.ar    1  UNL1        0.0980
     12 C         142.7057  135.7173  155.3441 C.ar    1  UNL1        0.0754
     13 CL        144.0604  135.1808  155.7004 Cl      1  UNL1       -0.0807
     14 C         142.0470  135.2999  154.0628 C.ar    1  UNL1        0.0129
     15 C         140.6923  135.8364  153.7064 C.ar    1  UNL1        0.0011
     16 C         139.9963  136.7902  154.6314 C.ar    1  UNL1        0.0063
     17 C         140.6549  137.2076  155.9128 C.ar    1  UNL1        0.0747
     18 C         139.9589  138.1615  156.8379 C.ar    1  UNL1        0.2634
     19 O         138.6042  138.6980  156.4815 O.2     1  UNL1       -0.2669
     20 O         144.6070  139.7121  163.6010 O.3     1  UNL1       -0.4791
     21 C         143.8087  139.7729  164.8695 C.3     1  UNL1        0.1687
     22 C         143.9005  138.6570  165.8676 C.3     1  UNL1        0.0609
     23 C         143.1023  138.7177  167.1361 C.3     1  UNL1        0.0758
     24 N         142.2122  139.8945  167.4065 N.3     1  UNL1       -0.2737
     25 C         142.1204  141.0105  166.4084 C.3     1  UNL1        0.0758
     26 C         142.9187  140.9496  165.1399 C.3     1  UNL1        0.0609
     27 C         141.4139  139.9553  168.6750 C.3     1  UNL1        0.0575
     28 C         139.9718  140.1961  169.0101 C.3     1  UNL1        0.0160
     29 C         140.2850  140.0413  170.4689 C.3     1  UNL1        0.0028
     30 C         141.7271  139.8004  170.1337 C.3     1  UNL1        0.0160
@<TRIPOS>BOND
     1     7     8    1
     2     8     9   ar
     3     9     1    1
     4     1     2   ar
     5     2     3   ar
     6     3     4   ar
     7     4    20    1
     8    20    21    1
     9    21    22    1
    10    22    23    1
    11    23    24    1
    12    24    27    1
    13    27    28    1
    14    28    29    1
    15    29    30    1
    16    24    25    1
    17    25    26    1
    18     4     5   ar
    19     5     6   ar
    20     9    10   ar
    21    10    11   ar
    22    11    12   ar
    23    12    13    1
    24    12    14   ar
    25    14    15   ar
    26    15    16   ar
    27    16    17   ar
    28    17    18   ar
    29    18    19    2
    30    18     8   ar
    31     6     1   ar
    32    17    11   ar
    33    26    21    1
    34    30    27    1
@<TRIPOS>MOLECULE
*****
 30 34 0 0 0
SMALL
GASTEIGER

@<TRIPOS>ATOM
      1 C         140.8992  139.1990  163.4327 C.ar    1  UNL1        0.0344
      2 C         141.8765  138.1020  163.1303 C.ar    1  UNL1        0.0061
      3 C         142.1632  137.7244  161.7073 C.ar    1  UNL1        0.0370
      4 C         141.4727  138.4436  160.5867 C.ar    1  UNL1        0.1384
      5 C         140.4954  139.5406  160.8891 C.ar    1  UNL1        0.0370
      6 C         140.2086  139.9183  162.3121 C.ar    1  UNL1        0.0061
      7 C         138.5471  138.0004  164.8579 C.3     1  UNL1        0.1350
      8 N         139.4363  138.9774  165.5684 N.ar    1  UNL1       -0.2786
      9 C         140.6124  139.5767  164.8558 C.ar    1  UNL1        0.1460
     10 N         141.5015  140.5538  165.5662 N.ar    1  UNL1       -0.2272
     11 C         141.2147  140.9315  166.9893 C.ar    1  UNL1        0.0980
     12 C         142.1039  141.9085  167.6998 C.ar    1  UNL1        0.0754
     13 CL        143.2799  142.5078  166.9872 Cl      1  UNL1       -0.0807
     14 C         141.8171  142.2862  169.1228 C.ar    1  UNL1        0.0129
     15 C         140.6411  141.6869  169.8354 C.ar    1  UNL1        0.0011
     16 C         139.7519  140.7099  169.1250 C.ar    1  UNL1        0.0063
     17 C         140.0387  140.3322  167.7019 C.ar    1  UNL1        0.0747
     18 C         139.1495  139.3551  166.9914 C.ar    1  UNL1        0.2634
     19 O         137.9735  138.7558  167.7040 O.2     1  UNL1       -0.2669
     20 O         141.7595  138.0659  159.1636 O.3     1  UNL1       -0.4791
     21 C         142.7634  138.8465  158.3681 C.3     1  UNL1        0.1687
     22 C         143.0587  138.4616  156.9488 C.3     1  UNL1        0.0609
     23 C         144.0627  139.2422  156.1533 C.3     1  UNL1        0.0758
     24 N         144.7713  140.4078  156.7773 N.3     1  UNL1       -0.2737
     25 C         144.4760  140.7927  158.1967 C.3     1  UNL1        0.0758
     26 C         143.4720  140.0120  158.9921 C.3     1  UNL1        0.0609
     27 C         145.7752  141.1884  155.9819 C.3     1  UNL1        0.0575
     28 C         146.0790  141.3479  154.5216 C.3     1  UNL1        0.0160
     29 C         147.1950  142.2924  154.8569 C.3     1  UNL1        0.0028
     30 C         146.8913  142.1329  156.3172 C.3     1  UNL1        0.0160
@<TRIPOS>BOND
     1     7     8    1
     2     8     9   ar
     3     9     1    1
     4     1     2   ar
     5     2     3   ar
     6     3     4   ar
     7     4    20    1
     8    20    21    1
     9    21    22    1
    10    22    23    1
    11    23    24    1
    12    24    27    1
    13    27    28    1
    14    28    29    1
    15    29    30    1
    16    24    25    1
    17    25    26    1
    18     4     5   ar
    19     5     6   ar
    20     9    10   ar
    21    10    11   ar
    22    11    12   ar
    23    12    13    1
    24    12    14   ar
    25    14    15   ar
    26    15    16   ar
    27    16    17   ar
    28    17    18   ar
    29    18    19    2
    30    18     8   ar
    31     6     1   ar
    32    17    11   ar
    33    26    21    1
    34    30    27    1
@<TRIPOS>MOLECULE
*****
 30 34 0 0 0
SMALL
GASTEIGER

@<TRIPOS>ATOM
      1 C         142.5038  140.0871  158.8686 C.ar    1  UNL1        0.0344
      2 C         143.4516  139.9372  157.7157 C.ar    1  UNL1        0.0061
      3 C         143.2221  138.8666  156.6905 C.ar    1  UNL1        0.0370
      4 C         142.0448  137.9459  156.8182 C.ar    1  UNL1        0.1384
      5 C         141.0970  138.0957  157.9710 C.ar    1  UNL1        0.0370
      6 C         141.3265  139.1663  158.9962 C.ar    1  UNL1        0.0061
      7 C         141.4328  142.8524  158.4151 C.3     1  UNL1        0.1350
      8 N         142.1977  142.5404  159.6671 N.ar    1  UNL1       -0.2786
      9 C         142.7332  141.1577  159.8939 C.ar    1  UNL1        0.1460
     10 N         143.4981  140.8456  161.1459 N.ar    1  UNL1       -0.2272
     11 C         143.7275  141.9163  162.1712 C.ar    1  UNL1        0.0980
     12 C         144.4924  141.6042  163.4232 C.ar    1  UNL1        0.0754
     13 CL        145.0279  140.2215  163.6499 Cl      1  UNL1       -0.0807
     14 C         144.7218  142.6748  164.4484 C.ar    1  UNL1        0.0129
     15 C         144.1863  144.0575  164.2216 C.ar    1  UNL1        0.0011
     16 C         143.4214  144.3696  162.9696 C.ar    1  UNL1        0.0063
     17 C         143.1920  143.2990  161.9444 C.ar    1  UNL1        0.0747
     18 C         142.4271  143.6110  160.6924 C.ar    1  UNL1        0.2634
     19 O         141.8916  144.9937  160.4656 O.2     1  UNL1       -0.2669
     20 O         141.8154  136.8752  155.7928 O.3     1  UNL1       -0.4791
     21 C         142.2013  135.4567  156.0905 C.3     1  UNL1        0.1687
     22 C         141.5169  134.3279  155.3781 C.3     1  UNL1        0.0609
     23 C         141.9028  132.9094  155.6758 C.3     1  UNL1        0.0758
     24 N         142.9731  132.6194  156.6860 N.3     1  UNL1       -0.2737
     25 C         143.6574  133.7481  157.3985 C.3     1  UNL1        0.0758
     26 C         143.2715  135.1668  157.1007 C.3     1  UNL1        0.0609
     27 C         143.3589  131.2008  156.9837 C.3     1  UNL1        0.0575
     28 C         144.3665  130.5410  157.8778 C.3     1  UNL1        0.0160
     29 C         143.9046  129.1946  157.4047 C.3     1  UNL1        0.0028
     30 C         142.8970  129.8544  156.5106 C.3     1  UNL1        0.0160
@<TRIPOS>BOND
     1     7     8    1
     2     8     9   ar
     3     9     1    1
     4     1     2   ar
     5     2     3   ar
     6     3     4   ar
     7     4    20    1
     8    20    21    1
     9    21    22    1
    10    22    23    1
    11    23    24    1
    12    24    27    1
    13    27    28    1
    14    28    29    1
    15    29    30    1
    16    24    25    1
    17    25    26    1
    18     4     5   ar
    19     5     6   ar
    20     9    10   ar
    21    10    11   ar
    22    11    12   ar
    23    12    13    1
    24    12    14   ar
    25    14    15   ar
    26    15    16   ar
    27    16    17   ar
    28    17    18   ar
    29    18    19    2
    30    18     8   ar
    31     6     1   ar
    32    17    11   ar
    33    26    21    1
    34    30    27    1
@<TRIPOS>MOLECULE
*****
 30 34 0 0 0
SMALL
GASTEIGER

@<TRIPOS>ATOM
      1 C         140.8408  140.7142  164.1912 C.ar    1  UNL1        0.0344
      2 C         141.7051  139.7151  163.4808 C.ar    1  UNL1        0.0061
      3 C         141.9600  139.8559  162.0094 C.ar    1  UNL1        0.0370
      4 C         141.3505  140.9957  161.2483 C.ar    1  UNL1        0.1384
      5 C         140.4862  141.9948  161.9586 C.ar    1  UNL1        0.0370
      6 C         140.2314  141.8541  163.4301 C.ar    1  UNL1        0.0061
      7 C         138.4397  139.1986  165.1593 C.3     1  UNL1        0.1350
      8 N         139.3853  139.8157  166.1468 N.ar    1  UNL1       -0.2786
      9 C         140.5859  140.5735  165.6627 C.ar    1  UNL1        0.1460
     10 N         141.5315  141.1906  166.6500 N.ar    1  UNL1       -0.2272
     11 C         141.2766  141.0499  168.1216 C.ar    1  UNL1        0.0980
     12 C         142.2222  141.6670  169.1089 C.ar    1  UNL1        0.0754
     13 CL        143.4228  142.4248  168.6248 Cl      1  UNL1       -0.0807
     14 C         141.9673  141.5262  170.5803 C.ar    1  UNL1        0.0129
     15 C         140.7667  140.7684  171.0644 C.ar    1  UNL1        0.0011
     16 C         139.8211  140.1513  170.0771 C.ar    1  UNL1        0.0063
     17 C         140.0761  140.2920  168.6056 C.ar    1  UNL1        0.0747
     18 C         139.1304  139.6749  167.6182 C.ar    1  UNL1        0.2634
     19 O         137.9298  138.9171  168.1022 O.2     1  UNL1       -0.2669
     20 O         141.6055  141.1364  159.7768 O.3     1  UNL1       -0.4791
     21 C         141.5722  139.9266  158.8908 C.3     1  UNL1        0.1687
     22 C         142.8540  139.3117  158.4124 C.3     1  UNL1        0.0609
     23 C         142.8208  138.1019  157.5264 C.3     1  UNL1        0.0758
     24 N         141.5056  137.5067  157.1187 N.3     1  UNL1       -0.2737
     25 C         140.2237  138.1216  157.5970 C.3     1  UNL1        0.0758
     26 C         140.2570  139.3315  158.4831 C.3     1  UNL1        0.0609
     27 C         141.4723  136.2969  156.2327 C.3     1  UNL1        0.0575
     28 C         140.6316  135.8554  155.0715 C.3     1  UNL1        0.0160
     29 C         141.4252  134.5858  154.9797 C.3     1  UNL1        0.0028
     30 C         142.2659  135.0273  156.1408 C.3     1  UNL1        0.0160
@<TRIPOS>BOND
     1     7     8    1
     2     8     9   ar
     3     9     1    1
     4     1     2   ar
     5     2     3   ar
     6     3     4   ar
     7     4    20    1
     8    20    21    1
     9    21    22    1
    10    22    23    1
    11    23    24    1
    12    24    27    1
    13    27    28    1
    14    28    29    1
    15    29    30    1
    16    24    25    1
    17    25    26    1
    18     4     5   ar
    19     5     6   ar
    20     9    10   ar
    21    10    11   ar
    22    11    12   ar
    23    12    13    1
    24    12    14   ar
    25    14    15   ar
    26    15    16   ar
    27    16    17   ar
    28    17    18   ar
    29    18    19    2
    30    18     8   ar
    31     6     1   ar
    32    17    11   ar
    33    26    21    1
    34    30    27    1
@<TRIPOS>MOLECULE
*****
 30 34 0 0 0
SMALL
GASTEIGER

@<TRIPOS>ATOM
      1 C         140.5913  138.9578  158.9657 C.ar    1  UNL1        0.0344
      2 C         139.7057  138.3419  157.9236 C.ar    1  UNL1        0.0061
      3 C         140.2952  137.4549  156.8674 C.ar    1  UNL1        0.0370
      4 C         141.7704  137.1837  156.8534 C.ar    1  UNL1        0.1384
      5 C         142.6561  137.7996  157.8956 C.ar    1  UNL1        0.0370
      6 C         142.0666  138.6867  158.9518 C.ar    1  UNL1        0.0061
      7 C         140.1219  141.8649  158.3924 C.3     1  UNL1        0.1350
      8 N         139.7671  141.2985  159.7353 N.ar    1  UNL1       -0.2786
      9 C         140.0018  139.8449  160.0220 C.ar    1  UNL1        0.1460
     10 N         139.6470  139.2785  161.3648 N.ar    1  UNL1       -0.2272
     11 C         139.0574  140.1656  162.4210 C.ar    1  UNL1        0.0980
     12 C         138.7026  139.5992  163.7638 C.ar    1  UNL1        0.0754
     13 CL        138.9373  138.1456  164.0505 Cl      1  UNL1       -0.0807
     14 C         138.1131  140.4863  164.8200 C.ar    1  UNL1        0.0129
     15 C         137.8784  141.9398  164.5333 C.ar    1  UNL1        0.0011
     16 C         138.2332  142.5062  163.1905 C.ar    1  UNL1        0.0063
     17 C         138.8227  141.6191  162.1344 C.ar    1  UNL1        0.0747
     18 C         139.1776  142.1856  160.7914 C.ar    1  UNL1        0.2634
     19 O         138.9429  143.6391  160.5048 O.2     1  UNL1       -0.2669
     20 O         142.3600  136.2966  155.7972 O.3     1  UNL1       -0.4791
     21 C         142.5819  134.8402  156.0791 C.3     1  UNL1        0.1687
     22 C         143.6932  134.4138  156.9920 C.3     1  UNL1        0.0609
     23 C         143.9151  132.9574  157.2740 C.3     1  UNL1        0.0758
     24 N         143.0258  131.9273  156.6430 N.3     1  UNL1       -0.2737
     25 C         141.9145  132.3537  155.7301 C.3     1  UNL1        0.0758
     26 C         141.6926  133.8102  155.4482 C.3     1  UNL1        0.0609
     27 C         143.2477  130.4709  156.9250 C.3     1  UNL1        0.0575
     28 C         143.2715  129.2215  156.0952 C.3     1  UNL1        0.0160
     29 C         143.5616  128.4111  157.3237 C.3     1  UNL1        0.0028
     30 C         143.5378  129.6605  158.1535 C.3     1  UNL1        0.0160
@<TRIPOS>BOND
     1     7     8    1
     2     8     9   ar
     3     9     1    1
     4     1     2   ar
     5     2     3   ar
     6     3     4   ar
     7     4    20    1
     8    20    21    1
     9    21    22    1
    10    22    23    1
    11    23    24    1
    12    24    27    1
    13    27    28    1
    14    28    29    1
    15    29    30    1
    16    24    25    1
    17    25    26    1
    18     4     5   ar
    19     5     6   ar
    20     9    10   ar
    21    10    11   ar
    22    11    12   ar
    23    12    13    1
    24    12    14   ar
    25    14    15   ar
    26    15    16   ar
    27    16    17   ar
    28    17    18   ar
    29    18    19    2
    30    18     8   ar
    31     6     1   ar
    32    17    11   ar
    33    26    21    1
    34    30    27    1
@<TRIPOS>MOLECULE
*****
 30 34 0 0 0
SMALL
GASTEIGER

@<TRIPOS>ATOM
      1 C         142.7896  141.9847  164.2270 C.ar    1  UNL1        0.0344
      2 C         141.7181  141.8463  163.1865 C.ar    1  UNL1        0.0061
      3 C         141.8966  142.4778  161.8376 C.ar    1  UNL1        0.0370
      4 C         143.1466  143.2475  161.5294 C.ar    1  UNL1        0.1384
      5 C         144.2180  143.3859  162.5699 C.ar    1  UNL1        0.0370
      6 C         144.0395  142.7545  163.9187 C.ar    1  UNL1        0.0061
      7 C         144.0000  139.2999  164.7984 C.3     1  UNL1        0.1350
      8 N         143.2163  140.0109  165.8616 N.ar    1  UNL1       -0.2786
      9 C         142.6111  141.3533  165.5759 C.ar    1  UNL1        0.1460
     10 N         141.8274  142.0643  166.6391 N.ar    1  UNL1       -0.2272
     11 C         141.6489  141.4328  167.9880 C.ar    1  UNL1        0.0980
     12 C         140.8653  142.1438  169.0512 C.ar    1  UNL1        0.0754
     13 CL        140.2601  143.4863  168.7655 Cl      1  UNL1       -0.0807
     14 C         140.6868  141.5124  170.4000 C.ar    1  UNL1        0.0129
     15 C         141.2920  140.1700  170.6857 C.ar    1  UNL1        0.0011
     16 C         142.0757  139.4590  169.6225 C.ar    1  UNL1        0.0063
     17 C         142.2541  140.0904  168.2737 C.ar    1  UNL1        0.0747
     18 C         143.0378  139.3794  167.2105 C.ar    1  UNL1        0.2634
     19 O         143.6430  138.0370  167.4961 O.2     1  UNL1       -0.2669
     20 O         143.3251  143.8790  160.1804 O.3     1  UNL1       -0.4791
     21 C         142.1758  143.9293  159.2179 C.3     1  UNL1        0.1687
     22 C         141.2713  145.1257  159.1916 C.3     1  UNL1        0.0609
     23 C         140.1220  145.1760  158.2291 C.3     1  UNL1        0.0758
     24 N         139.8771  144.0300  157.2928 N.3     1  UNL1       -0.2737
     25 C         140.7815  142.8336  157.3191 C.3     1  UNL1        0.0758
     26 C         141.9309  142.7833  158.2817 C.3     1  UNL1        0.0609
     27 C         138.7278  144.0803  156.3303 C.3     1  UNL1        0.0575
     28 C         137.5774  143.1748  156.0036 C.3     1  UNL1        0.0160
     29 C         137.1024  144.1515  154.9690 C.3     1  UNL1        0.0028
     30 C         138.2527  145.0570  155.2957 C.3     1  UNL1        0.0160
@<TRIPOS>BOND
     1     7     8    1
     2     8     9   ar
     3     9     1    1
     4     1     2   ar
     5     2     3   ar
     6     3     4   ar
     7     4    20    1
     8    20    21    1
     9    21    22    1
    10    22    23    1
    11    23    24    1
    12    24    27    1
    13    27    28    1
    14    28    29    1
    15    29    30    1
    16    24    25    1
    17    25    26    1
    18     4     5   ar
    19     5     6   ar
    20     9    10   ar
    21    10    11   ar
    22    11    12   ar
    23    12    13    1
    24    12    14   ar
    25    14    15   ar
    26    15    16   ar
    27    16    17   ar
    28    17    18   ar
    29    18    19    2
    30    18     8   ar
    31     6     1   ar
    32    17    11   ar
    33    26    21    1
    34    30    27    1
