@<TRIPOS>MOLECULE
*****
 36 41 0 0 0
SMALL
GASTEIGER

@<TRIPOS>ATOM
      1 C         142.3331  138.6620  160.1009 C.ar    1  UNL1        0.1655
      2 N         142.4470  139.7224  161.1557 N.ar    1  UNL1       -0.2219
      3 C         142.0290  139.1211  162.4647 C.ar    1  UNL1        0.1344
      4 C         141.9392  139.6925  163.8487 C.ar    1  UNL1        0.1049
      5 C         141.4772  138.8318  164.9870 C.ar    1  UNL1        0.0392
      6 C         141.1048  137.3996  164.7413 C.ar    1  UNL1        0.0751
      7 N         141.1946  136.8282  163.3573 N.ar    1  UNL1       -0.3361
      8 C         141.6567  137.6889  162.2190 C.ar    1  UNL1        0.1615
      9 N         141.8446  137.4052  160.7581 N.ar    1  UNL1       -0.2081
     10 H         140.9503  135.8883  163.1960 H       1  UNL1        0.1675
     11 C         143.2224  135.3572  156.6362 C.ar    1  UNL1        0.0552
     12 C         143.4986  135.9764  155.2982 C.ar    1  UNL1        0.0062
     13 C         143.4800  137.4683  155.1441 C.ar    1  UNL1        0.0173
     14 C         143.1853  138.3410  156.3279 C.ar    1  UNL1        0.0601
     15 C         142.9091  137.7219  157.6659 C.ar    1  UNL1        0.0203
     16 C         142.9276  136.2300  157.8201 C.ar    1  UNL1        0.0063
     17 C         142.6517  138.8290  158.6447 C.ar    1  UNL1        0.0544
     18 C         142.7688  140.1324  157.9116 C.ar    1  UNL1        0.0790
     19 N         143.0986  139.8309  156.4797 N.ar    1  UNL1       -0.3240
     20 C         143.3054  140.8416  155.3908 C.3     1  UNL1        0.1305
     21 C         144.7426  130.4556  157.8789 C.3     1  UNL1        0.0967
     22 C         143.9397  131.6122  157.3617 C.ar    1  UNL1        0.2270
     23 N         142.5992  131.5265  156.6939 N.ar    1  UNL1       -0.1114
     24 N         142.1674  132.9190  156.3409 N.ar    1  UNL1       -0.1072
     25 C         143.2409  133.8652  156.7905 C.ar    1  UNL1        0.2496
     26 O         144.3363  133.0576  157.4213 O.2     1  UNL1       -0.4195
     27 N         142.3115  141.1247  164.0943 N.ar    1  UNL1       -0.2272
     28 C         141.5112  142.3261  163.6868 C.ar    1  UNL1        0.0987
     29 C         142.2545  143.5508  164.1312 C.ar    1  UNL1        0.0283
     30 C         143.5143  143.1063  164.8134 C.ar    1  UNL1        0.0782
     31 C         144.5560  144.0037  165.4131 C.3     1  UNL1        0.0537
     32 N         143.5496  141.6069  164.7906 N.ar    1  UNL1       -0.1697
     33 C         141.8151  144.9706  163.9289 C.3     1  UNL1        0.1020
     34 N         140.4115  145.2660  163.4901 N.3     1  UNL1       -0.2664
     35 C         139.2584  144.9304  164.3889 C.3     1  UNL1        0.0899
     36 C         140.1609  145.8970  162.1526 C.3     1  UNL1        0.0899
@<TRIPOS>BOND
     1    21    22    1
     2    22    23   ar
     3    23    24   ar
     4    24    25   ar
     5    25    11    1
     6    11    12   ar
     7    12    13   ar
     8    13    14   ar
     9    14    15   ar
    10    15    16   ar
    11    15    17   ar
    12    17     1    1
    13     1     2   ar
    14     2     3   ar
    15     3     4   ar
    16     4    27    1
    17    27    28   ar
    18    28    29   ar
    19    29    33    1
    20    33    34    1
    21    34    35    1
    22    34    36    1
    23    29    30   ar
    24    30    31    1
    25    30    32   ar
    26     4     5   ar
    27     5     6   ar
    28     6     7   ar
    29     7     8   ar
    30     8     9   ar
    31    17    18   ar
    32    18    19   ar
    33    19    20    1
    34    25    26   ar
    35    26    22   ar
    36    16    11   ar
    37     9     1   ar
    38    19    14   ar
    39     8     3    1
    40    32    27   ar
    41     7    10    1
@<TRIPOS>MOLECULE
*****
 36 41 0 0 0
SMALL
GASTEIGER

@<TRIPOS>ATOM
      1 C         141.7069  139.3459  160.3773 C.ar    1  UNL1        0.1655
      2 N         141.9999  139.9506  161.7184 N.ar    1  UNL1       -0.2219
      3 C         141.0522  139.3508  162.7144 C.ar    1  UNL1        0.1344
      4 C         140.8758  139.5668  164.1883 C.ar    1  UNL1        0.1049
      5 C         139.8207  138.8074  164.9366 C.ar    1  UNL1        0.0392
      6 C         138.9419  137.8320  164.2111 C.ar    1  UNL1        0.0751
      7 N         139.1183  137.6160  162.7372 N.ar    1  UNL1       -0.3361
      8 C         140.1735  138.3754  161.9889 C.ar    1  UNL1        0.1615
      9 N         140.5781  138.3723  160.5444 N.ar    1  UNL1       -0.2081
     10 H         138.5416  136.9758  162.2611 H       1  UNL1        0.1675
     11 C         142.9175  136.4864  156.6257 C.ar    1  UNL1        0.0552
     12 C         143.6313  137.2283  155.5348 C.ar    1  UNL1        0.0062
     13 C         143.8981  138.6974  155.6774 C.ar    1  UNL1        0.0173
     14 C         143.4512  139.4247  156.9108 C.ar    1  UNL1        0.0601
     15 C         142.7374  138.6828  158.0017 C.ar    1  UNL1        0.0203
     16 C         142.4705  137.2137  157.8592 C.ar    1  UNL1        0.0063
     17 C         142.4179  139.6596  159.0943 C.ar    1  UNL1        0.0544
     18 C         142.9343  141.0052  158.6787 C.ar    1  UNL1        0.0790
     19 N         143.5729  140.8601  157.3292 N.ar    1  UNL1       -0.3240
     20 C         144.2196  141.9575  156.5372 C.3     1  UNL1        0.1305
     21 C         141.0547  131.8677  154.8709 C.3     1  UNL1        0.0967
     22 C         141.7944  132.8942  155.6766 C.ar    1  UNL1        0.2270
     23 N         142.6855  132.6184  156.8514 N.ar    1  UNL1       -0.1114
     24 N         143.2146  133.9305  157.3499 N.ar    1  UNL1       -0.1072
     25 C         142.6506  135.0172  156.4832 C.ar    1  UNL1        0.2496
     26 O         141.7728  134.3767  155.4491 O.2     1  UNL1       -0.4195
     27 N         141.7546  140.5423  164.9137 N.ar    1  UNL1       -0.2272
     28 C         141.8010  140.7522  166.3983 C.ar    1  UNL1        0.0987
     29 C         142.8163  141.8187  166.6841 C.ar    1  UNL1        0.0283
     30 C         143.3975  142.2678  165.3762 C.ar    1  UNL1        0.0782
     31 C         144.4500  143.3210  165.1944 C.3     1  UNL1        0.0537
     32 N         142.7413  141.4790  164.2821 N.ar    1  UNL1       -0.1697
     33 C         143.1856  142.3437  168.0398 C.3     1  UNL1        0.1020
     34 N         142.2933  142.0774  169.2157 N.3     1  UNL1       -0.2664
     35 C         141.0805  142.9297  169.4452 C.3     1  UNL1        0.0899
     36 C         142.6137  140.9588  170.1623 C.3     1  UNL1        0.0899
@<TRIPOS>BOND
     1    21    22    1
     2    22    23   ar
     3    23    24   ar
     4    24    25   ar
     5    25    11    1
     6    11    12   ar
     7    12    13   ar
     8    13    14   ar
     9    14    15   ar
    10    15    16   ar
    11    15    17   ar
    12    17     1    1
    13     1     2   ar
    14     2     3   ar
    15     3     4   ar
    16     4    27    1
    17    27    28   ar
    18    28    29   ar
    19    29    33    1
    20    33    34    1
    21    34    35    1
    22    34    36    1
    23    29    30   ar
    24    30    31    1
    25    30    32   ar
    26     4     5   ar
    27     5     6   ar
    28     6     7   ar
    29     7     8   ar
    30     8     9   ar
    31    17    18   ar
    32    18    19   ar
    33    19    20    1
    34    25    26   ar
    35    26    22   ar
    36    16    11   ar
    37     9     1   ar
    38    19    14   ar
    39     8     3    1
    40    32    27   ar
    41     7    10    1
@<TRIPOS>MOLECULE
*****
 36 41 0 0 0
SMALL
GASTEIGER

@<TRIPOS>ATOM
      1 C         142.2341  138.9358  160.1997 C.ar    1  UNL1        0.1655
      2 N         141.5905  139.9360  161.1138 N.ar    1  UNL1       -0.2219
      3 C         141.2134  139.2295  162.3821 C.ar    1  UNL1        0.1344
      4 C         140.5493  139.7088  163.6388 C.ar    1  UNL1        0.1049
      5 C         140.2957  138.7513  164.7652 C.ar    1  UNL1        0.0392
      6 C         140.7062  137.3144  164.6350 C.ar    1  UNL1        0.0751
      7 N         141.3703  136.8351  163.3784 N.ar    1  UNL1       -0.3361
      8 C         141.6239  137.7926  162.2519 C.ar    1  UNL1        0.1615
      9 N         142.2547  137.6111  160.9031 N.ar    1  UNL1       -0.2081
     10 H         141.6397  135.8921  163.2929 H       1  UNL1        0.1675
     11 C         142.8546  135.9858  156.3750 C.ar    1  UNL1        0.0552
     12 C         143.4219  136.6931  155.1802 C.ar    1  UNL1        0.0062
     13 C         143.7329  138.1586  155.2540 C.ar    1  UNL1        0.0173
     14 C         143.4766  138.9168  156.5227 C.ar    1  UNL1        0.0601
     15 C         142.9092  138.2094  157.7175 C.ar    1  UNL1        0.0203
     16 C         142.5982  136.7439  157.6437 C.ar    1  UNL1        0.0063
     17 C         142.7639  139.2119  158.8238 C.ar    1  UNL1        0.0544
     18 C         143.2415  140.5388  158.3128 C.ar    1  UNL1        0.0790
     19 N         143.6819  140.3565  156.8905 N.ar    1  UNL1       -0.3240
     20 C         144.2313  141.4259  155.9937 C.3     1  UNL1        0.1305
     21 C         140.9512  131.3308  154.7658 C.3     1  UNL1        0.0967
     22 C         141.6687  132.3805  155.5616 C.ar    1  UNL1        0.2270
     23 N         142.4612  132.1493  156.8140 N.ar    1  UNL1       -0.1114
     24 N         143.0019  133.4717  157.2711 N.ar    1  UNL1       -0.1072
     25 C         142.5435  134.5202  156.3013 C.ar    1  UNL1        0.2496
     26 O         141.7196  133.8458  155.2447 O.2     1  UNL1       -0.4195
     27 N         140.1388  141.1457  163.7689 N.ar    1  UNL1       -0.2272
     28 C         140.9160  142.3323  163.2812 C.ar    1  UNL1        0.0987
     29 C         140.1367  143.5682  163.6204 C.ar    1  UNL1        0.0283
     30 C         138.8777  143.1454  164.3178 C.ar    1  UNL1        0.0782
     31 C         137.8056  144.0593  164.8330 C.3     1  UNL1        0.0537
     32 N         138.8790  141.6482  164.4096 N.ar    1  UNL1       -0.1697
     33 C         140.5446  144.9791  163.3158 C.3     1  UNL1        0.1020
     34 N         140.5201  145.4780  161.9014 N.3     1  UNL1       -0.2664
     35 C         139.5338  146.5326  161.4951 C.3     1  UNL1        0.0899
     36 C         141.4819  144.9225  160.8933 C.3     1  UNL1        0.0899
@<TRIPOS>BOND
     1    21    22    1
     2    22    23   ar
     3    23    24   ar
     4    24    25   ar
     5    25    11    1
     6    11    12   ar
     7    12    13   ar
     8    13    14   ar
     9    14    15   ar
    10    15    16   ar
    11    15    17   ar
    12    17     1    1
    13     1     2   ar
    14     2     3   ar
    15     3     4   ar
    16     4    27    1
    17    27    28   ar
    18    28    29   ar
    19    29    33    1
    20    33    34    1
    21    34    35    1
    22    34    36    1
    23    29    30   ar
    24    30    31    1
    25    30    32   ar
    26     4     5   ar
    27     5     6   ar
    28     6     7   ar
    29     7     8   ar
    30     8     9   ar
    31    17    18   ar
    32    18    19   ar
    33    19    20    1
    34    25    26   ar
    35    26    22   ar
    36    16    11   ar
    37     9     1   ar
    38    19    14   ar
    39     8     3    1
    40    32    27   ar
    41     7    10    1
@<TRIPOS>MOLECULE
*****
 36 41 0 0 0
SMALL
GASTEIGER

@<TRIPOS>ATOM
      1 C         139.6096  142.1621  160.0007 C.ar    1  UNL1        0.1655
      2 N         140.2825  141.7930  161.2896 N.ar    1  UNL1       -0.2219
      3 C         139.5792  142.5121  162.4023 C.ar    1  UNL1        0.1344
      4 C         139.8043  142.5312  163.8852 C.ar    1  UNL1        0.1049
      5 C         138.9217  143.3640  164.7670 C.ar    1  UNL1        0.0392
      6 C         137.8141  144.1776  164.1660 C.ar    1  UNL1        0.0751
      7 N         137.5891  144.1584  162.6831 N.ar    1  UNL1       -0.3361
      8 C         138.4717  143.3257  161.8012 C.ar    1  UNL1        0.1615
      9 N         138.4904  143.1094  160.3170 N.ar    1  UNL1       -0.2081
     10 H         136.8621  144.6924  162.2886 H       1  UNL1        0.1675
     11 C         136.8513  140.7604  156.2400 C.ar    1  UNL1        0.0552
     12 C         137.6607  140.3376  155.0500 C.ar    1  UNL1        0.0062
     13 C         139.1589  140.3778  155.1095 C.ar    1  UNL1        0.0173
     14 C         139.8478  140.8407  156.3590 C.ar    1  UNL1        0.0601
     15 C         139.0384  141.2634  157.5490 C.ar    1  UNL1        0.0203
     16 C         137.5401  141.2233  157.4895 C.ar    1  UNL1        0.0063
     17 C         139.9892  141.6703  158.6354 C.ar    1  UNL1        0.0544
     18 C         141.3863  141.4990  158.1169 C.ar    1  UNL1        0.0790
     19 N         141.2989  140.9863  156.7100 N.ar    1  UNL1       -0.3240
     20 C         142.4589  140.6739  155.8117 C.3     1  UNL1        0.1305
     21 C         131.8154  139.5495  157.2669 C.3     1  UNL1        0.0967
     22 C         133.0382  140.1637  156.6525 C.ar    1  UNL1        0.2270
     23 N         133.0564  141.1534  155.5255 N.ar    1  UNL1       -0.1114
     24 N         134.4870  141.4973  155.2338 N.ar    1  UNL1       -0.1072
     25 C         135.3530  140.7203  156.1805 C.ar    1  UNL1        0.2496
     26 O         134.4575  139.8960  157.0574 O.2     1  UNL1       -0.4195
     27 N         140.9119  141.7175  164.4862 N.ar    1  UNL1       -0.2272
     28 C         140.8458  140.9550  165.7762 C.ar    1  UNL1        0.0987
     29 C         142.1730  140.2898  165.9900 C.ar    1  UNL1        0.0283
     30 C         143.0595  140.6412  164.8321 C.ar    1  UNL1        0.0782
     31 C         144.4767  140.1895  164.6378 C.3     1  UNL1        0.0537
     32 N         142.2801  141.5236  163.9027 N.ar    1  UNL1       -0.1697
     33 C         142.5480  139.4250  167.1568 C.3     1  UNL1        0.1020
     34 N         142.6372  140.0180  168.5317 N.3     1  UNL1       -0.2664
     35 C         142.3937  139.1584  169.7366 C.3     1  UNL1        0.0899
     36 C         142.9700  141.4707  168.7018 C.3     1  UNL1        0.0899
@<TRIPOS>BOND
     1    21    22    1
     2    22    23   ar
     3    23    24   ar
     4    24    25   ar
     5    25    11    1
     6    11    12   ar
     7    12    13   ar
     8    13    14   ar
     9    14    15   ar
    10    15    16   ar
    11    15    17   ar
    12    17     1    1
    13     1     2   ar
    14     2     3   ar
    15     3     4   ar
    16     4    27    1
    17    27    28   ar
    18    28    29   ar
    19    29    33    1
    20    33    34    1
    21    34    35    1
    22    34    36    1
    23    29    30   ar
    24    30    31    1
    25    30    32   ar
    26     4     5   ar
    27     5     6   ar
    28     6     7   ar
    29     7     8   ar
    30     8     9   ar
    31    17    18   ar
    32    18    19   ar
    33    19    20    1
    34    25    26   ar
    35    26    22   ar
    36    16    11   ar
    37     9     1   ar
    38    19    14   ar
    39     8     3    1
    40    32    27   ar
    41     7    10    1
@<TRIPOS>MOLECULE
*****
 36 41 0 0 0
SMALL
GASTEIGER

@<TRIPOS>ATOM
      1 C         141.4583  140.0430  160.8874 C.ar    1  UNL1        0.1655
      2 N         141.0524  139.9239  162.3266 N.ar    1  UNL1       -0.2219
      3 C         142.2985  139.7844  163.1498 C.ar    1  UNL1        0.1344
      4 C         142.5143  139.6317  164.6263 C.ar    1  UNL1        0.1049
      5 C         143.9061  139.5118  165.1724 C.ar    1  UNL1        0.0392
      6 C         145.0823  139.5445  164.2420 C.ar    1  UNL1        0.0751
      7 N         144.8665  139.6972  162.7655 N.ar    1  UNL1       -0.3361
      8 C         143.4746  139.8172  162.2194 C.ar    1  UNL1        0.1615
      9 N         142.9554  139.9770  160.8212 N.ar    1  UNL1       -0.2081
     10 H         145.6385  139.7188  162.1549 H       1  UNL1        0.1675
     11 C         141.0250  137.4450  156.7912 C.ar    1  UNL1        0.0552
     12 C         139.9489  137.9636  155.8840 C.ar    1  UNL1        0.0062
     13 C         139.1438  139.1639  156.2851 C.ar    1  UNL1        0.0173
     14 C         139.4148  139.8457  157.5935 C.ar    1  UNL1        0.0601
     15 C         140.4909  139.3271  158.5007 C.ar    1  UNL1        0.0203
     16 C         141.2960  138.1268  158.0996 C.ar    1  UNL1        0.0063
     17 C         140.5301  140.2004  159.7196 C.ar    1  UNL1        0.0544
     18 C         139.4782  141.2586  159.5658 C.ar    1  UNL1        0.0790
     19 N         138.7889  141.0395  158.2518 N.ar    1  UNL1       -0.3240
     20 C         137.6702  141.8684  157.6939 C.3     1  UNL1        0.1305
     21 C         142.5407  132.9807  154.4134 C.3     1  UNL1        0.0967
     22 C         142.5269  134.1926  155.2972 C.ar    1  UNL1        0.2270
     23 N         143.6117  134.6023  156.2488 N.ar    1  UNL1       -0.1114
     24 N         143.1811  135.8705  156.9242 N.ar    1  UNL1       -0.1072
     25 C         141.8302  136.2446  156.3901 C.ar    1  UNL1        0.2496
     26 O         141.4259  135.2076  155.3846 O.2     1  UNL1       -0.4195
     27 N         141.3380  139.5989  165.5566 N.ar    1  UNL1       -0.2272
     28 C         141.2366  140.3075  166.8749 C.ar    1  UNL1        0.0987
     29 C         139.8927  139.9983  167.4651 C.ar    1  UNL1        0.0283
     30 C         139.1635  139.0987  166.5115 C.ar    1  UNL1        0.0782
     31 C         137.7834  138.5434  166.7038 C.3     1  UNL1        0.0537
     32 N         140.0568  138.8519  165.3321 N.ar    1  UNL1       -0.1697
     33 C         139.3698  140.5006  168.7781 C.3     1  UNL1        0.1020
     34 N         140.2796  141.2391  169.7146 N.3     1  UNL1       -0.2664
     35 C         141.1367  140.4789  170.6828 C.3     1  UNL1        0.0899
     36 C         140.3323  142.7378  169.6829 C.3     1  UNL1        0.0899
@<TRIPOS>BOND
     1    21    22    1
     2    22    23   ar
     3    23    24   ar
     4    24    25   ar
     5    25    11    1
     6    11    12   ar
     7    12    13   ar
     8    13    14   ar
     9    14    15   ar
    10    15    16   ar
    11    15    17   ar
    12    17     1    1
    13     1     2   ar
    14     2     3   ar
    15     3     4   ar
    16     4    27    1
    17    27    28   ar
    18    28    29   ar
    19    29    33    1
    20    33    34    1
    21    34    35    1
    22    34    36    1
    23    29    30   ar
    24    30    31    1
    25    30    32   ar
    26     4     5   ar
    27     5     6   ar
    28     6     7   ar
    29     7     8   ar
    30     8     9   ar
    31    17    18   ar
    32    18    19   ar
    33    19    20    1
    34    25    26   ar
    35    26    22   ar
    36    16    11   ar
    37     9     1   ar
    38    19    14   ar
    39     8     3    1
    40    32    27   ar
    41     7    10    1
@<TRIPOS>MOLECULE
*****
 36 41 0 0 0
SMALL
GASTEIGER

@<TRIPOS>ATOM
      1 C         141.3345  138.9607  159.5826 C.ar    1  UNL1        0.1655
      2 N         141.6307  139.5564  160.9271 N.ar    1  UNL1       -0.2219
      3 C         140.5504  139.1244  161.8738 C.ar    1  UNL1        0.1344
      4 C         140.3199  139.4050  163.3291 C.ar    1  UNL1        0.1049
      5 C         139.1253  138.8231  164.0251 C.ar    1  UNL1        0.0392
      6 C         138.1614  137.9605  163.2658 C.ar    1  UNL1        0.0751
      7 N         138.3919  137.6798  161.8104 N.ar    1  UNL1       -0.3361
      8 C         139.5864  138.2618  161.1144 C.ar    1  UNL1        0.1615
      9 N         140.0710  138.1606  159.6984 N.ar    1  UNL1       -0.2081
     10 H         137.7592  137.1136  161.3121 H       1  UNL1        0.1675
     11 C         143.3771  135.6712  156.6293 C.ar    1  UNL1        0.0552
     12 C         144.1224  136.2969  155.4878 C.ar    1  UNL1        0.0062
     13 C         144.1756  137.7900  155.3555 C.ar    1  UNL1        0.0173
     14 C         143.4836  138.6575  156.3648 C.ar    1  UNL1        0.0601
     15 C         142.7383  138.0318  157.5063 C.ar    1  UNL1        0.0203
     16 C         142.6851  136.5386  157.6385 C.ar    1  UNL1        0.0063
     17 C         142.1573  139.1347  158.3405 C.ar    1  UNL1        0.0544
     18 C         142.5434  140.4421  157.7146 C.ar    1  UNL1        0.0790
     19 N         143.3631  140.1472  156.4935 N.ar    1  UNL1       -0.3240
     20 C         143.9579  141.1634  155.5643 C.3     1  UNL1        0.1305
     21 C         144.6739  130.6813  157.7697 C.3     1  UNL1        0.0967
     22 C         143.9200  131.8843  157.2858 C.ar    1  UNL1        0.2270
     23 N         142.5639  131.8759  156.6445 N.ar    1  UNL1       -0.1114
     24 N         142.1956  133.2934  156.3205 N.ar    1  UNL1       -0.1072
     25 C         143.3239  134.1779  156.7616 C.ar    1  UNL1        0.2496
     26 O         144.3896  133.3071  157.3581 O.2     1  UNL1       -0.4195
     27 N         141.2839  140.2677  164.0884 N.ar    1  UNL1       -0.2272
     28 C         142.3872  141.0916  163.4934 C.ar    1  UNL1        0.0987
     29 C         143.0991  141.7910  164.6132 C.ar    1  UNL1        0.0283
     30 C         142.4357  141.3994  165.9004 C.ar    1  UNL1        0.0782
     31 C         142.8258  141.8671  167.2712 C.3     1  UNL1        0.0537
     32 N         141.3139  140.4580  165.5760 N.ar    1  UNL1       -0.1697
     33 C         144.2689  142.7190  164.4708 C.3     1  UNL1        0.1020
     34 N         144.1915  143.8842  163.5294 N.3     1  UNL1       -0.2664
     35 C         144.5815  143.7135  162.0911 C.3     1  UNL1        0.0899
     36 C         143.7242  145.2201  164.0262 C.3     1  UNL1        0.0899
@<TRIPOS>BOND
     1    21    22    1
     2    22    23   ar
     3    23    24   ar
     4    24    25   ar
     5    25    11    1
     6    11    12   ar
     7    12    13   ar
     8    13    14   ar
     9    14    15   ar
    10    15    16   ar
    11    15    17   ar
    12    17     1    1
    13     1     2   ar
    14     2     3   ar
    15     3     4   ar
    16     4    27    1
    17    27    28   ar
    18    28    29   ar
    19    29    33    1
    20    33    34    1
    21    34    35    1
    22    34    36    1
    23    29    30   ar
    24    30    31    1
    25    30    32   ar
    26     4     5   ar
    27     5     6   ar
    28     6     7   ar
    29     7     8   ar
    30     8     9   ar
    31    17    18   ar
    32    18    19   ar
    33    19    20    1
    34    25    26   ar
    35    26    22   ar
    36    16    11   ar
    37     9     1   ar
    38    19    14   ar
    39     8     3    1
    40    32    27   ar
    41     7    10    1
@<TRIPOS>MOLECULE
*****
 36 41 0 0 0
SMALL
GASTEIGER

@<TRIPOS>ATOM
      1 C         138.9190  141.8215  159.5515 C.ar    1  UNL1        0.1655
      2 N         139.1167  141.0819  160.8416 N.ar    1  UNL1       -0.2219
      3 C         138.7454  142.0031  161.9656 C.ar    1  UNL1        0.1344
      4 C         138.7411  141.8193  163.4543 C.ar    1  UNL1        0.1049
      5 C         138.3097  142.9443  164.3477 C.ar    1  UNL1        0.0392
      6 C         137.8825  144.2532  163.7525 C.ar    1  UNL1        0.0751
      7 N         137.8869  144.4371  162.2638 N.ar    1  UNL1       -0.3361
      8 C         138.3183  143.3120  161.3704 C.ar    1  UNL1        0.1615
      9 N         138.4256  143.1998  159.8784 N.ar    1  UNL1       -0.2081
     10 H         137.6065  145.2961  161.8731 H       1  UNL1        0.1675
     11 C         135.8254  140.6122  155.9902 C.ar    1  UNL1        0.0552
     12 C         136.5210  140.1024  154.7629 C.ar    1  UNL1        0.0062
     13 C         138.0179  140.0117  154.7325 C.ar    1  UNL1        0.0173
     14 C         138.8192  140.4307  155.9293 C.ar    1  UNL1        0.0601
     15 C         138.1236  140.9404  157.1566 C.ar    1  UNL1        0.0203
     16 C         136.6267  141.0312  157.1870 C.ar    1  UNL1        0.0063
     17 C         139.1706  141.2781  158.1762 C.ar    1  UNL1        0.0544
     18 C         140.5133  140.9771  157.5791 C.ar    1  UNL1        0.0790
     19 N         140.2962  140.4533  156.1904 N.ar    1  UNL1       -0.3240
     20 C         141.3678  140.0271  155.2313 C.3     1  UNL1        0.1305
     21 C         130.8474  141.9067  154.7962 C.3     1  UNL1        0.0967
     22 C         132.0403  141.2980  155.4719 C.ar    1  UNL1        0.2270
     23 N         132.0093  140.3873  156.6635 N.ar    1  UNL1       -0.1114
     24 N         133.4235  140.0196  157.0026 N.ar    1  UNL1       -0.1072
     25 C         134.3284  140.7030  156.0207 C.ar    1  UNL1        0.2496
     26 O         133.4735  141.4931  155.0747 O.2     1  UNL1       -0.4195
     27 N         139.1683  140.5103  164.0495 N.ar    1  UNL1       -0.2272
     28 C         140.5726  139.9868  164.1124 C.ar    1  UNL1        0.0987
     29 C         140.5384  138.6481  164.7880 C.ar    1  UNL1        0.0283
     30 C         139.1129  138.3441  165.1427 C.ar    1  UNL1        0.0782
     31 C         138.6207  137.1065  165.8327 C.3     1  UNL1        0.0537
     32 N         138.2662  139.4951  164.6863 N.ar    1  UNL1       -0.1697
     33 C         141.7219  137.7678  165.0610 C.3     1  UNL1        0.1020
     34 N         143.0233  138.3743  165.4950 N.3     1  UNL1       -0.2664
     35 C         144.0104  138.8457  164.4686 C.3     1  UNL1        0.0899
     36 C         143.3378  138.5095  166.9555 C.3     1  UNL1        0.0899
@<TRIPOS>BOND
     1    21    22    1
     2    22    23   ar
     3    23    24   ar
     4    24    25   ar
     5    25    11    1
     6    11    12   ar
     7    12    13   ar
     8    13    14   ar
     9    14    15   ar
    10    15    16   ar
    11    15    17   ar
    12    17     1    1
    13     1     2   ar
    14     2     3   ar
    15     3     4   ar
    16     4    27    1
    17    27    28   ar
    18    28    29   ar
    19    29    33    1
    20    33    34    1
    21    34    35    1
    22    34    36    1
    23    29    30   ar
    24    30    31    1
    25    30    32   ar
    26     4     5   ar
    27     5     6   ar
    28     6     7   ar
    29     7     8   ar
    30     8     9   ar
    31    17    18   ar
    32    18    19   ar
    33    19    20    1
    34    25    26   ar
    35    26    22   ar
    36    16    11   ar
    37     9     1   ar
    38    19    14   ar
    39     8     3    1
    40    32    27   ar
    41     7    10    1
@<TRIPOS>MOLECULE
*****
 36 41 0 0 0
SMALL
GASTEIGER

@<TRIPOS>ATOM
      1 C         140.3321  141.8130  159.4073 C.ar    1  UNL1        0.1655
      2 N         140.0974  141.7085  160.8852 N.ar    1  UNL1       -0.2219
      3 C         139.9330  143.0972  161.4279 C.ar    1  UNL1        0.1344
      4 C         139.6793  143.6094  162.8147 C.ar    1  UNL1        0.1049
      5 C         139.5588  145.0845  163.0590 C.ar    1  UNL1        0.0392
      6 C         139.6919  146.0473  161.9165 C.ar    1  UNL1        0.0751
      7 N         139.9456  145.5351  160.5297 N.ar    1  UNL1       -0.3361
      8 C         140.0662  144.0600  160.2854 C.ar    1  UNL1        0.1615
      9 N         140.3129  143.2664  159.0366 N.ar    1  UNL1       -0.2081
     10 H         140.0330  146.1670  159.7799 H       1  UNL1        0.1675
     11 C         144.2031  140.5848  156.7197 C.ar    1  UNL1        0.0552
     12 C         143.9793  139.3417  155.9107 C.ar    1  UNL1        0.0062
     13 C         142.6655  138.6223  155.9889 C.ar    1  UNL1        0.0173
     14 C         141.5754  139.1460  156.8763 C.ar    1  UNL1        0.0601
     15 C         141.7991  140.3891  157.6854 C.ar    1  UNL1        0.0203
     16 C         143.1130  141.1085  157.6071 C.ar    1  UNL1        0.0063
     17 C         140.5482  140.6657  158.4656 C.ar    1  UNL1        0.0544
     18 C         139.5514  139.5935  158.1387 C.ar    1  UNL1        0.0790
     19 N         140.1861  138.6543  157.1565 N.ar    1  UNL1       -0.3240
     20 C         139.5445  137.4371  156.5592 C.3     1  UNL1        0.1305
     21 C         149.0495  142.0403  155.2114 C.3     1  UNL1        0.0967
     22 C         147.7446  141.9733  155.9482 C.ar    1  UNL1        0.2270
     23 N         147.3330  142.8496  157.0940 N.ar    1  UNL1       -0.1114
     24 N         145.9563  142.4360  157.5225 N.ar    1  UNL1       -0.1072
     25 C         145.5170  141.3043  156.6415 C.ar    1  UNL1        0.2496
     26 O         146.6222  141.0183  155.6685 O.2     1  UNL1       -0.4195
     27 N         139.5462  142.6465  163.9571 N.ar    1  UNL1       -0.2272
     28 C         140.2855  142.7171  165.2604 C.ar    1  UNL1        0.0987
     29 C         139.8466  141.5583  166.1056 C.ar    1  UNL1        0.0283
     30 C         138.8360  140.7714  165.3247 C.ar    1  UNL1        0.0782
     31 C         138.1343  139.5300  165.7900 C.3     1  UNL1        0.0537
     32 N         138.6504  141.4440  163.9969 N.ar    1  UNL1       -0.1697
     33 C         140.3329  141.2418  167.4888 C.3     1  UNL1        0.1020
     34 N         141.1789  142.2332  168.2314 N.3     1  UNL1       -0.2664
     35 C         142.6735  142.1776  168.1180 C.3     1  UNL1        0.0899
     36 C         140.5302  143.2803  169.0875 C.3     1  UNL1        0.0899
@<TRIPOS>BOND
     1    21    22    1
     2    22    23   ar
     3    23    24   ar
     4    24    25   ar
     5    25    11    1
     6    11    12   ar
     7    12    13   ar
     8    13    14   ar
     9    14    15   ar
    10    15    16   ar
    11    15    17   ar
    12    17     1    1
    13     1     2   ar
    14     2     3   ar
    15     3     4   ar
    16     4    27    1
    17    27    28   ar
    18    28    29   ar
    19    29    33    1
    20    33    34    1
    21    34    35    1
    22    34    36    1
    23    29    30   ar
    24    30    31    1
    25    30    32   ar
    26     4     5   ar
    27     5     6   ar
    28     6     7   ar
    29     7     8   ar
    30     8     9   ar
    31    17    18   ar
    32    18    19   ar
    33    19    20    1
    34    25    26   ar
    35    26    22   ar
    36    16    11   ar
    37     9     1   ar
    38    19    14   ar
    39     8     3    1
    40    32    27   ar
    41     7    10    1
@<TRIPOS>MOLECULE
*****
 36 41 0 0 0
SMALL
GASTEIGER

@<TRIPOS>ATOM
      1 C         138.9505  139.3808  159.9927 C.ar    1  UNL1        0.1655
      2 N         139.2080  140.3545  161.1044 N.ar    1  UNL1       -0.2219
      3 C         139.1785  139.5980  162.3993 C.ar    1  UNL1        0.1344
      4 C         139.3672  140.0353  163.8217 C.ar    1  UNL1        0.1049
      5 C         139.2801  139.0314  164.9328 C.ar    1  UNL1        0.0392
      6 C         139.0043  137.5902  164.6215 C.ar    1  UNL1        0.0751
      7 N         138.8157  137.1529  163.1991 N.ar    1  UNL1       -0.3361
      8 C         138.9028  138.1568  162.0880 C.ar    1  UNL1        0.1615
      9 N         138.7618  138.0225  160.6007 N.ar    1  UNL1       -0.2081
     10 H         138.6347  136.2070  162.9948 H       1  UNL1        0.1675
     11 C         140.9866  137.1824  156.1538 C.ar    1  UNL1        0.0552
     12 C         140.6591  137.8574  154.8550 C.ar    1  UNL1        0.0062
     13 C         139.7865  139.0774  154.8430 C.ar    1  UNL1        0.0173
     14 C         139.2415  139.6224  156.1298 C.ar    1  UNL1        0.0601
     15 C         139.5690  138.9474  157.4287 C.ar    1  UNL1        0.0203
     16 C         140.4416  137.7274  157.4406 C.ar    1  UNL1        0.0063
     17 C         138.8919  139.7079  158.5300 C.ar    1  UNL1        0.0544
     18 C         138.1458  140.8530  157.9118 C.ar    1  UNL1        0.0790
     19 N         138.3619  140.8002  156.4284 N.ar    1  UNL1       -0.3240
     20 C         137.7974  141.7571  155.4206 C.3     1  UNL1        0.1305
     21 C         143.0206  132.4513  154.9870 C.3     1  UNL1        0.0967
     22 C         142.7941  133.7877  155.6295 C.ar    1  UNL1        0.2270
     23 N         143.6098  134.3821  156.7393 N.ar    1  UNL1       -0.1114
     24 N         143.0320  135.7260  157.0707 N.ar    1  UNL1       -0.1072
     25 C         141.8592  135.9623  156.1658 C.ar    1  UNL1        0.2496
     26 O         141.7122  134.7644  155.2752 O.2     1  UNL1       -0.4195
     27 N         139.6429  141.4766  164.1329 N.ar    1  UNL1       -0.2272
     28 C         140.9111  142.2173  163.8281 C.ar    1  UNL1        0.0987
     29 C         140.7509  143.6286  164.3104 C.ar    1  UNL1        0.0283
     30 C         139.3836  143.7600  164.9132 C.ar    1  UNL1        0.0782
     31 C         138.8031  145.0033  165.5193 C.3     1  UNL1        0.0537
     32 N         138.6989  142.4300  164.8035 N.ar    1  UNL1       -0.1697
     33 C         141.7777  144.7173  164.2078 C.3     1  UNL1        0.1020
     34 N         143.2018  144.3767  163.8824 N.3     1  UNL1       -0.2664
     35 C         143.6746  144.4099  162.4593 C.3     1  UNL1        0.0899
     36 C         144.1532  144.0028  164.9802 C.3     1  UNL1        0.0899
@<TRIPOS>BOND
     1    21    22    1
     2    22    23   ar
     3    23    24   ar
     4    24    25   ar
     5    25    11    1
     6    11    12   ar
     7    12    13   ar
     8    13    14   ar
     9    14    15   ar
    10    15    16   ar
    11    15    17   ar
    12    17     1    1
    13     1     2   ar
    14     2     3   ar
    15     3     4   ar
    16     4    27    1
    17    27    28   ar
    18    28    29   ar
    19    29    33    1
    20    33    34    1
    21    34    35    1
    22    34    36    1
    23    29    30   ar
    24    30    31    1
    25    30    32   ar
    26     4     5   ar
    27     5     6   ar
    28     6     7   ar
    29     7     8   ar
    30     8     9   ar
    31    17    18   ar
    32    18    19   ar
    33    19    20    1
    34    25    26   ar
    35    26    22   ar
    36    16    11   ar
    37     9     1   ar
    38    19    14   ar
    39     8     3    1
    40    32    27   ar
    41     7    10    1
