@<TRIPOS>MOLECULE
*****
 28 31 0 0 0
SMALL
GASTEIGER

@<TRIPOS>ATOM
      1 C         138.4958  143.4914  163.8623 C.2     1  UNL1        0.0123
      2 C         139.6266  143.9938  163.0145 C.2     1  UNL1        0.0857
      3 S         141.0080  143.4124  162.9526 S.3     1  UNL1       -0.0483
      4 C         141.8098  144.2251  161.9796 C.2     1  UNL1        0.1658
      5 N         143.2453  143.9946  161.6108 N.2     1  UNL1       -0.2244
      6 N         140.9240  145.3088  161.4402 N.am    1  UNL1       -0.2602
      7 C         139.5747  145.1659  162.0798 C.2     1  UNL1        0.2570
      8 O         138.3828  146.0413  161.8287 O.2     1  UNL1       -0.2692
      9 H         141.1827  145.9936  160.7819 H       1  UNL1        0.1571
     10 C         138.1891  138.6248  165.8876 C.3     1  UNL1        0.0504
     11 C         138.5565  140.0648  165.6843 C.ar    1  UNL1        0.0414
     12 C         138.0858  140.9452  164.5648 C.ar    1  UNL1        0.0142
     13 C         138.6974  142.3018  164.7533 C.ar    1  UNL1        0.0138
     14 C         139.5462  142.2598  165.9894 C.ar    1  UNL1        0.0414
     15 C         140.3422  143.4002  166.5514 C.3     1  UNL1        0.0504
     16 N         139.4591  140.8773  166.5648 N.ar    1  UNL1       -0.3135
     17 C         140.1528  140.3924  167.8032 C.ar    1  UNL1        0.0634
     18 C         141.5670  139.8983  167.7261 C.ar    1  UNL1        0.0175
     19 C         142.2607  139.4135  168.9645 C.ar    1  UNL1        0.0015
     20 C         141.5401  139.4227  170.2801 C.ar    1  UNL1        0.0001
     21 C         140.1259  139.9168  170.3573 C.ar    1  UNL1        0.0015
     22 C         139.4323  140.4017  169.1188 C.ar    1  UNL1        0.0175
     23 C         144.0081  142.8643  162.2358 C.ar    1  UNL1        0.0832
     24 C         144.8351  143.1061  163.4637 C.ar    1  UNL1        0.0192
     25 C         145.5978  141.9758  164.0887 C.ar    1  UNL1        0.0015
     26 C         145.5336  140.6038  163.4858 C.ar    1  UNL1        0.0001
     27 C         144.7066  140.3620  162.2580 C.ar    1  UNL1        0.0015
     28 C         143.9438  141.4923  161.6330 C.ar    1  UNL1        0.0192
@<TRIPOS>BOND
     1    10    11    1
     2    11    12   ar
     3    12    13   ar
     4    13     1    1
     5     1     2    2
     6     2     3    1
     7     3     4    1
     8     4     5    2
     9     5    23    1
    10    23    24   ar
    11    24    25   ar
    12    25    26   ar
    13    26    27   ar
    14    27    28   ar
    15     4     6    1
    16     6     7   am
    17     7     8    2
    18    13    14   ar
    19    14    15    1
    20    14    16   ar
    21    16    17    1
    22    17    18   ar
    23    18    19   ar
    24    19    20   ar
    25    20    21   ar
    26    21    22   ar
    27    16    11   ar
    28    22    17   ar
    29     7     2    1
    30    28    23   ar
    31     6     9    1
@<TRIPOS>MOLECULE
*****
 28 31 0 0 0
SMALL
GASTEIGER

@<TRIPOS>ATOM
      1 C         139.6139  137.9907  163.5110 C.2     1  UNL1        0.0123
      2 C         138.8162  138.9602  162.6902 C.2     1  UNL1        0.0857
      3 S         139.0587  140.4369  162.5874 S.3     1  UNL1       -0.0483
      4 C         138.0282  141.0125  161.6617 C.2     1  UNL1        0.1658
      5 N         137.8997  142.4557  161.2735 N.2     1  UNL1       -0.2244
      6 N         137.1489  139.8916  161.1924 N.am    1  UNL1       -0.2602
      7 C         137.6358  138.6232  161.8280 C.2     1  UNL1        0.2570
      8 O         137.0460  137.2576  161.6354 O.2     1  UNL1       -0.2692
      9 H         136.3860  139.9740  160.5756 H       1  UNL1        0.1571
     10 C         144.5309  139.0573  165.1129 C.3     1  UNL1        0.0504
     11 C         143.0344  138.9669  165.0641 C.ar    1  UNL1        0.0414
     12 C         142.2240  138.3456  163.9655 C.ar    1  UNL1        0.0142
     13 C         140.7743  138.4767  164.3278 C.ar    1  UNL1        0.0138
     14 C         140.6888  139.1791  165.6504 C.ar    1  UNL1        0.0414
     15 C         139.4279  139.5188  166.3884 C.3     1  UNL1        0.0504
     16 N         142.0856  139.4821  166.1055 N.ar    1  UNL1       -0.3135
     17 C         142.4667  140.1781  167.3785 C.ar    1  UNL1        0.0634
     18 C         142.4595  139.4254  168.6760 C.ar    1  UNL1        0.0175
     19 C         142.8406  140.1213  169.9489 C.ar    1  UNL1        0.0015
     20 C         143.2289  141.5700  169.9243 C.ar    1  UNL1        0.0001
     21 C         143.2361  142.3227  168.6269 C.ar    1  UNL1        0.0015
     22 C         142.8550  141.6267  167.3539 C.ar    1  UNL1        0.0175
     23 C         138.8577  143.4692  161.8261 C.ar    1  UNL1        0.0832
     24 C         140.0631  143.8738  161.0302 C.ar    1  UNL1        0.0192
     25 C         141.0209  144.8872  161.5828 C.ar    1  UNL1        0.0015
     26 C         140.7735  145.4961  162.9311 C.ar    1  UNL1        0.0001
     27 C         139.5681  145.0915  163.7269 C.ar    1  UNL1        0.0015
     28 C         138.6102  144.0781  163.1744 C.ar    1  UNL1        0.0192
@<TRIPOS>BOND
     1    10    11    1
     2    11    12   ar
     3    12    13   ar
     4    13     1    1
     5     1     2    2
     6     2     3    1
     7     3     4    1
     8     4     5    2
     9     5    23    1
    10    23    24   ar
    11    24    25   ar
    12    25    26   ar
    13    26    27   ar
    14    27    28   ar
    15     4     6    1
    16     6     7   am
    17     7     8    2
    18    13    14   ar
    19    14    15    1
    20    14    16   ar
    21    16    17    1
    22    17    18   ar
    23    18    19   ar
    24    19    20   ar
    25    20    21   ar
    26    21    22   ar
    27    16    11   ar
    28    22    17   ar
    29     7     2    1
    30    28    23   ar
    31     6     9    1
@<TRIPOS>MOLECULE
*****
 28 31 0 0 0
SMALL
GASTEIGER

@<TRIPOS>ATOM
      1 C         142.2776  138.1731  163.6715 C.2     1  UNL1        0.0123
      2 C         142.7741  139.0958  162.5982 C.2     1  UNL1        0.0857
      3 S         142.4137  140.5437  162.4439 S.3     1  UNL1       -0.0483
      4 C         143.1351  141.0754  161.2410 C.2     1  UNL1        0.1658
      5 N         143.0629  142.4797  160.7190 N.2     1  UNL1       -0.2244
      6 N         143.9413  139.9561  160.6518 N.am    1  UNL1       -0.2602
      7 C         143.7183  138.7327  161.4905 C.2     1  UNL1        0.2570
      8 O         144.3317  137.3831  161.2618 O.2     1  UNL1       -0.2692
      9 H         144.5160  140.0143  159.8546 H       1  UNL1        0.1571
     10 C         137.9008  139.0065  166.5051 C.3     1  UNL1        0.0504
     11 C         139.3193  139.0641  166.0209 C.ar    1  UNL1        0.0414
     12 C         139.8763  138.3347  164.8344 C.ar    1  UNL1        0.0142
     13 C         141.3312  138.6810  164.7184 C.ar    1  UNL1        0.0138
     14 C         141.6734  139.6245  165.8332 C.ar    1  UNL1        0.0414
     15 C         143.0221  140.2256  166.0968 C.3     1  UNL1        0.0504
     16 N         140.4300  139.8613  166.6383 N.ar    1  UNL1       -0.3135
     17 C         140.3171  140.7408  167.8481 C.ar    1  UNL1        0.0634
     18 C         140.4886  142.2250  167.7151 C.ar    1  UNL1        0.0175
     19 C         140.3758  143.1045  168.9250 C.ar    1  UNL1        0.0015
     20 C         140.0914  142.4996  170.2679 C.ar    1  UNL1        0.0001
     21 C         139.9199  141.0154  170.4009 C.ar    1  UNL1        0.0015
     22 C         140.0327  140.1360  169.1910 C.ar    1  UNL1        0.0175
     23 C         142.2091  143.4964  161.4171 C.ar    1  UNL1        0.0832
     24 C         140.8017  143.7369  160.9573 C.ar    1  UNL1        0.0192
     25 C         139.9480  144.7536  161.6554 C.ar    1  UNL1        0.0015
     26 C         140.5017  145.5298  162.8135 C.ar    1  UNL1        0.0001
     27 C         141.9090  145.2893  163.2733 C.ar    1  UNL1        0.0015
     28 C         142.7627  144.2726  162.5751 C.ar    1  UNL1        0.0192
@<TRIPOS>BOND
     1    10    11    1
     2    11    12   ar
     3    12    13   ar
     4    13     1    1
     5     1     2    2
     6     2     3    1
     7     3     4    1
     8     4     5    2
     9     5    23    1
    10    23    24   ar
    11    24    25   ar
    12    25    26   ar
    13    26    27   ar
    14    27    28   ar
    15     4     6    1
    16     6     7   am
    17     7     8    2
    18    13    14   ar
    19    14    15    1
    20    14    16   ar
    21    16    17    1
    22    17    18   ar
    23    18    19   ar
    24    19    20   ar
    25    20    21   ar
    26    21    22   ar
    27    16    11   ar
    28    22    17   ar
    29     7     2    1
    30    28    23   ar
    31     6     9    1
@<TRIPOS>MOLECULE
*****
 28 31 0 0 0
SMALL
GASTEIGER

@<TRIPOS>ATOM
      1 C         139.5225  144.5634  163.9400 C.2     1  UNL1        0.0123
      2 C         140.3696  144.6343  162.7042 C.2     1  UNL1        0.0857
      3 S         141.3317  143.5842  162.2333 S.3     1  UNL1       -0.0483
      4 C         141.9601  144.0686  160.9603 C.2     1  UNL1        0.1658
      5 N         142.9826  143.3327  160.1462 N.2     1  UNL1       -0.2244
      6 N         141.3863  145.4180  160.6444 N.am    1  UNL1       -0.2602
      7 C         140.4034  145.7676  161.7221 C.2     1  UNL1        0.2570
      8 O         139.5959  147.0292  161.8035 O.2     1  UNL1       -0.2692
      9 H         141.6148  145.9762  159.8663 H       1  UNL1        0.1571
     10 C         140.7461  141.3475  167.9452 C.3     1  UNL1        0.0504
     11 C         140.1582  141.8812  166.6725 C.ar    1  UNL1        0.0414
     12 C         140.3664  143.2578  166.1145 C.ar    1  UNL1        0.0142
     13 C         139.5958  143.3594  164.8316 C.ar    1  UNL1        0.0138
     14 C         138.9113  142.0455  164.5967 C.ar    1  UNL1        0.0414
     15 C         138.0334  141.7050  163.4292 C.3     1  UNL1        0.0504
     16 N         139.2589  141.1319  165.7345 N.ar    1  UNL1       -0.3135
     17 C         138.7896  139.7173  165.9044 C.ar    1  UNL1        0.0634
     18 C         137.8197  139.3749  166.9962 C.ar    1  UNL1        0.0175
     19 C         137.3504  137.9604  167.1661 C.ar    1  UNL1        0.0015
     20 C         137.8510  136.8883  166.2441 C.ar    1  UNL1        0.0001
     21 C         138.8209  137.2307  165.1523 C.ar    1  UNL1        0.0015
     22 C         139.2902  138.6453  164.9824 C.ar    1  UNL1        0.0175
     23 C         143.4648  141.9833  160.5895 C.ar    1  UNL1        0.0832
     24 C         143.1493  140.7675  159.7696 C.ar    1  UNL1        0.0192
     25 C         143.6314  139.4181  160.2130 C.ar    1  UNL1        0.0015
     26 C         144.4290  139.2845  161.4763 C.ar    1  UNL1        0.0001
     27 C         144.7444  140.5002  162.2963 C.ar    1  UNL1        0.0015
     28 C         144.2623  141.8496  161.8529 C.ar    1  UNL1        0.0192
@<TRIPOS>BOND
     1    10    11    1
     2    11    12   ar
     3    12    13   ar
     4    13     1    1
     5     1     2    2
     6     2     3    1
     7     3     4    1
     8     4     5    2
     9     5    23    1
    10    23    24   ar
    11    24    25   ar
    12    25    26   ar
    13    26    27   ar
    14    27    28   ar
    15     4     6    1
    16     6     7   am
    17     7     8    2
    18    13    14   ar
    19    14    15    1
    20    14    16   ar
    21    16    17    1
    22    17    18   ar
    23    18    19   ar
    24    19    20   ar
    25    20    21   ar
    26    21    22   ar
    27    16    11   ar
    28    22    17   ar
    29     7     2    1
    30    28    23   ar
    31     6     9    1
@<TRIPOS>MOLECULE
*****
 28 31 0 0 0
SMALL
GASTEIGER

@<TRIPOS>ATOM
      1 C         144.3167  139.4334  163.2850 C.2     1  UNL1        0.0123
      2 C         143.2168  139.0663  162.3334 C.2     1  UNL1        0.0857
      3 S         141.8743  139.7288  162.2398 S.3     1  UNL1       -0.0483
      4 C         141.0940  139.0442  161.1569 C.2     1  UNL1        0.1658
      5 N         139.6986  139.3854  160.7254 N.2     1  UNL1       -0.2244
      6 N         141.9543  137.9586  160.5813 N.am    1  UNL1       -0.2602
      7 C         143.2662  137.9722  161.3084 C.2     1  UNL1        0.2570
      8 O         144.4243  137.0531  161.0551 O.2     1  UNL1       -0.2692
      9 H         141.7021  137.3448  159.8540 H       1  UNL1        0.1571
     10 C         144.6233  144.1511  165.6365 C.3     1  UNL1        0.0504
     11 C         144.2626  142.7256  165.3401 C.ar    1  UNL1        0.0414
     12 C         144.7206  141.9284  164.1550 C.ar    1  UNL1        0.0142
     13 C         144.1217  140.5571  164.2592 C.ar    1  UNL1        0.0138
     14 C         143.2934  140.5068  165.5088 C.ar    1  UNL1        0.0414
     15 C         142.5148  139.3241  166.0035 C.3     1  UNL1        0.0504
     16 N         143.3805  141.8470  166.1769 N.ar    1  UNL1       -0.3135
     17 C         142.7042  142.2397  167.4569 C.ar    1  UNL1        0.0634
     18 C         143.5002  142.3457  168.7238 C.ar    1  UNL1        0.0175
     19 C         142.8239  142.7383  170.0039 C.ar    1  UNL1        0.0015
     20 C         141.3516  143.0251  170.0168 C.ar    1  UNL1        0.0001
     21 C         140.5556  142.9192  168.7499 C.ar    1  UNL1        0.0015
     22 C         141.2319  142.5265  167.4699 C.ar    1  UNL1        0.0175
     23 C         138.9580  140.5035  161.3973 C.ar    1  UNL1        0.0832
     24 C         138.1362  140.2295  162.6218 C.ar    1  UNL1        0.0192
     25 C         137.3956  141.3476  163.2936 C.ar    1  UNL1        0.0015
     26 C         137.4768  142.7397  162.7409 C.ar    1  UNL1        0.0001
     27 C         138.2986  143.0137  161.5164 C.ar    1  UNL1        0.0015
     28 C         139.0392  141.8956  160.8446 C.ar    1  UNL1        0.0192
@<TRIPOS>BOND
     1    10    11    1
     2    11    12   ar
     3    12    13   ar
     4    13     1    1
     5     1     2    2
     6     2     3    1
     7     3     4    1
     8     4     5    2
     9     5    23    1
    10    23    24   ar
    11    24    25   ar
    12    25    26   ar
    13    26    27   ar
    14    27    28   ar
    15     4     6    1
    16     6     7   am
    17     7     8    2
    18    13    14   ar
    19    14    15    1
    20    14    16   ar
    21    16    17    1
    22    17    18   ar
    23    18    19   ar
    24    19    20   ar
    25    20    21   ar
    26    21    22   ar
    27    16    11   ar
    28    22    17   ar
    29     7     2    1
    30    28    23   ar
    31     6     9    1
@<TRIPOS>MOLECULE
*****
 28 31 0 0 0
SMALL
GASTEIGER

@<TRIPOS>ATOM
      1 C         138.9466  143.3668  163.8358 C.2     1  UNL1        0.0123
      2 C         139.7182  143.3660  162.5495 C.2     1  UNL1        0.0857
      3 S         140.6459  142.2855  162.0784 S.3     1  UNL1       -0.0483
      4 C         141.1985  142.6973  160.7461 C.2     1  UNL1        0.1658
      5 N         142.1672  141.9120  159.9125 N.2     1  UNL1       -0.2244
      6 N         140.6124  144.0323  160.3937 N.am    1  UNL1       -0.2602
      7 C         139.6975  144.4457  161.5082 C.2     1  UNL1        0.2570
      8 O         138.9016  145.7156  161.5706 O.2     1  UNL1       -0.2692
      9 H         140.7959  144.5470  159.5747 H       1  UNL1        0.1571
     10 C         138.0511  138.7965  166.3239 C.3     1  UNL1        0.0504
     11 C         138.6569  140.1103  165.9278 C.ar    1  UNL1        0.0414
     12 C         138.1707  141.0103  164.8307 C.ar    1  UNL1        0.0142
     13 C         139.0685  142.2111  164.7841 C.ar    1  UNL1        0.0138
     14 C         140.1095  142.0533  165.8525 C.ar    1  UNL1        0.0414
     15 C         141.2114  143.0234  166.1601 C.3     1  UNL1        0.0504
     16 N         139.8551  140.7549  166.5594 N.ar    1  UNL1       -0.3135
     17 C         140.6580  140.1988  167.6979 C.ar    1  UNL1        0.0634
     18 C         142.0141  139.6108  167.4424 C.ar    1  UNL1        0.0175
     19 C         142.8170  139.0547  168.5809 C.ar    1  UNL1        0.0015
     20 C         142.2637  139.0866  169.9748 C.ar    1  UNL1        0.0001
     21 C         140.9076  139.6746  170.2302 C.ar    1  UNL1        0.0015
     22 C         140.1048  140.2307  169.0917 C.ar    1  UNL1        0.0175
     23 C         142.6695  140.5844  160.3974 C.ar    1  UNL1        0.0832
     24 C         143.8047  140.5239  161.3759 C.ar    1  UNL1        0.0192
     25 C         144.3070  139.1962  161.8608 C.ar    1  UNL1        0.0015
     26 C         143.6740  137.9291  161.3671 C.ar    1  UNL1        0.0001
     27 C         142.5388  137.9896  160.3885 C.ar    1  UNL1        0.0015
     28 C         142.0365  139.3172  159.9037 C.ar    1  UNL1        0.0192
@<TRIPOS>BOND
     1    10    11    1
     2    11    12   ar
     3    12    13   ar
     4    13     1    1
     5     1     2    2
     6     2     3    1
     7     3     4    1
     8     4     5    2
     9     5    23    1
    10    23    24   ar
    11    24    25   ar
    12    25    26   ar
    13    26    27   ar
    14    27    28   ar
    15     4     6    1
    16     6     7   am
    17     7     8    2
    18    13    14   ar
    19    14    15    1
    20    14    16   ar
    21    16    17    1
    22    17    18   ar
    23    18    19   ar
    24    19    20   ar
    25    20    21   ar
    26    21    22   ar
    27    16    11   ar
    28    22    17   ar
    29     7     2    1
    30    28    23   ar
    31     6     9    1
@<TRIPOS>MOLECULE
*****
 28 31 0 0 0
SMALL
GASTEIGER

@<TRIPOS>ATOM
      1 C         142.9355  138.6118  160.7440 C.2     1  UNL1        0.0123
      2 C         143.0356  139.9324  160.0398 C.2     1  UNL1        0.0857
      3 S         142.7753  141.2783  160.6488 S.3     1  UNL1       -0.0483
      4 C         142.9924  142.3167  159.5883 C.2     1  UNL1        0.1658
      5 N         142.8415  143.7990  159.7617 N.2     1  UNL1       -0.2244
      6 N         143.3868  141.6126  158.3239 N.am    1  UNL1       -0.2602
      7 C         143.4135  140.1391  158.6029 C.2     1  UNL1        0.2570
      8 O         143.7577  139.0613  157.6180 O.2     1  UNL1       -0.2692
      9 H         143.5921  142.0422  157.4622 H       1  UNL1        0.1571
     10 C         143.1994  138.4087  166.0137 C.3     1  UNL1        0.0504
     11 C         142.6652  138.4678  164.6133 C.ar    1  UNL1        0.0414
     12 C         143.4851  138.5064  163.3578 C.ar    1  UNL1        0.0142
     13 C         142.5439  138.5612  162.1910 C.ar    1  UNL1        0.0138
     14 C         141.1424  138.5565  162.7254 C.ar    1  UNL1        0.0414
     15 C         139.8864  138.6016  161.9066 C.3     1  UNL1        0.0504
     16 N         141.2172  138.4988  164.2225 N.ar    1  UNL1       -0.3135
     17 C         140.0493  138.4761  165.1635 C.ar    1  UNL1        0.0634
     18 C         139.1376  137.2855  165.1987 C.ar    1  UNL1        0.0175
     19 C         137.9697  137.2628  166.1397 C.ar    1  UNL1        0.0015
     20 C         137.7136  138.4308  167.0455 C.ar    1  UNL1        0.0001
     21 C         138.6252  139.6214  167.0102 C.ar    1  UNL1        0.0015
     22 C         139.7932  139.6440  166.0692 C.ar    1  UNL1        0.0175
     23 C         142.4388  144.3612  161.0928 C.ar    1  UNL1        0.0832
     24 C         143.4222  144.3859  162.2252 C.ar    1  UNL1        0.0192
     25 C         143.0195  144.9481  163.5562 C.ar    1  UNL1        0.0015
     26 C         141.6333  145.4857  163.7549 C.ar    1  UNL1        0.0001
     27 C         140.6498  145.4610  162.6226 C.ar    1  UNL1        0.0015
     28 C         141.0526  144.8988  161.2915 C.ar    1  UNL1        0.0192
@<TRIPOS>BOND
     1    10    11    1
     2    11    12   ar
     3    12    13   ar
     4    13     1    1
     5     1     2    2
     6     2     3    1
     7     3     4    1
     8     4     5    2
     9     5    23    1
    10    23    24   ar
    11    24    25   ar
    12    25    26   ar
    13    26    27   ar
    14    27    28   ar
    15     4     6    1
    16     6     7   am
    17     7     8    2
    18    13    14   ar
    19    14    15    1
    20    14    16   ar
    21    16    17    1
    22    17    18   ar
    23    18    19   ar
    24    19    20   ar
    25    20    21   ar
    26    21    22   ar
    27    16    11   ar
    28    22    17   ar
    29     7     2    1
    30    28    23   ar
    31     6     9    1
@<TRIPOS>MOLECULE
*****
 28 31 0 0 0
SMALL
GASTEIGER

@<TRIPOS>ATOM
      1 C         140.8793  144.9911  163.0520 C.2     1  UNL1        0.0123
      2 C         140.2725  144.3783  161.8247 C.2     1  UNL1        0.0857
      3 S         139.9424  142.9275  161.6346 S.3     1  UNL1       -0.0483
      4 C         139.3552  142.7614  160.2644 C.2     1  UNL1        0.1658
      5 N         138.8836  141.4732  159.6575 N.2     1  UNL1       -0.2244
      6 N         139.3223  144.1095  159.6076 N.am    1  UNL1       -0.2602
      7 C         139.8892  145.1089  160.5719 C.2     1  UNL1        0.2570
      8 O         140.0454  146.5804  160.3265 O.2     1  UNL1       -0.2692
      9 H         138.9874  144.3042  158.7025 H       1  UNL1        0.1571
     10 C         143.5265  141.9692  166.4786 C.3     1  UNL1        0.0504
     11 C         142.4280  142.7410  165.8095 C.ar    1  UNL1        0.0414
     12 C         142.5487  143.5205  164.5337 C.ar    1  UNL1        0.0142
     13 C         141.2112  144.1300  164.2345 C.ar    1  UNL1        0.0138
     14 C         140.2637  143.7271  165.3254 C.ar    1  UNL1        0.0414
     15 C         138.8181  144.1147  165.4254 C.3     1  UNL1        0.0504
     16 N         141.0157  142.8687  166.2989 N.ar    1  UNL1       -0.3135
     17 C         140.4541  142.2471  167.5432 C.ar    1  UNL1        0.0634
     18 C         139.9112  140.8493  167.5040 C.ar    1  UNL1        0.0175
     19 C         139.3496  140.2277  168.7483 C.ar    1  UNL1        0.0015
     20 C         139.3309  141.0040  170.0318 C.ar    1  UNL1        0.0001
     21 C         139.8738  142.4018  170.0709 C.ar    1  UNL1        0.0015
     22 C         140.4354  143.0233  168.8266 C.ar    1  UNL1        0.0175
     23 C         138.9798  140.1965  160.4390 C.ar    1  UNL1        0.0832
     24 C         140.2833  139.4578  160.5115 C.ar    1  UNL1        0.0192
     25 C         140.3794  138.1811  161.2929 C.ar    1  UNL1        0.0015
     26 C         139.1720  137.6430  162.0019 C.ar    1  UNL1        0.0001
     27 C         137.8685  138.3817  161.9294 C.ar    1  UNL1        0.0015
     28 C         137.7724  139.6584  161.1480 C.ar    1  UNL1        0.0192
@<TRIPOS>BOND
     1    10    11    1
     2    11    12   ar
     3    12    13   ar
     4    13     1    1
     5     1     2    2
     6     2     3    1
     7     3     4    1
     8     4     5    2
     9     5    23    1
    10    23    24   ar
    11    24    25   ar
    12    25    26   ar
    13    26    27   ar
    14    27    28   ar
    15     4     6    1
    16     6     7   am
    17     7     8    2
    18    13    14   ar
    19    14    15    1
    20    14    16   ar
    21    16    17    1
    22    17    18   ar
    23    18    19   ar
    24    19    20   ar
    25    20    21   ar
    26    21    22   ar
    27    16    11   ar
    28    22    17   ar
    29     7     2    1
    30    28    23   ar
    31     6     9    1
@<TRIPOS>MOLECULE
*****
 28 31 0 0 0
SMALL
GASTEIGER

@<TRIPOS>ATOM
      1 C         140.5139  144.8061  162.7702 C.2     1  UNL1        0.0123
      2 C         140.6287  144.1496  161.4264 C.2     1  UNL1        0.0857
      3 S         141.1604  142.7725  161.1605 S.3     1  UNL1       -0.0483
      4 C         141.0923  142.5267  159.6823 C.2     1  UNL1        0.1658
      5 N         141.5224  141.2754  158.9758 N.2     1  UNL1       -0.2244
      6 N         140.5184  143.7519  159.0347 N.am    1  UNL1       -0.2602
      7 C         140.2319  144.7549  160.1126 C.2     1  UNL1        0.2570
      8 O         139.6506  146.1231  159.9119 O.2     1  UNL1       -0.2692
      9 H         140.3580  143.8760  158.0713 H       1  UNL1        0.1571
     10 C         143.5356  142.4378  166.3953 C.3     1  UNL1        0.0504
     11 C         142.3424  142.9847  165.6692 C.ar    1  UNL1        0.0414
     12 C         142.3647  143.7058  164.3541 C.ar    1  UNL1        0.0142
     13 C         140.9535  144.0734  164.0030 C.ar    1  UNL1        0.0138
     14 C         140.0590  143.5794  165.1011 C.ar    1  UNL1        0.0414
     15 C         138.5678  143.7316  165.1592 C.3     1  UNL1        0.0504
     16 N         140.9173  142.9066  166.1309 N.ar    1  UNL1       -0.3135
     17 C         140.4353  142.2678  167.3996 C.ar    1  UNL1        0.0634
     18 C         139.9513  140.8481  167.3877 C.ar    1  UNL1        0.0175
     19 C         139.4693  140.2093  168.6564 C.ar    1  UNL1        0.0015
     20 C         139.4712  140.9905  169.9371 C.ar    1  UNL1        0.0001
     21 C         139.9551  142.4102  169.9490 C.ar    1  UNL1        0.0015
     22 C         140.4371  143.0489  168.6802 C.ar    1  UNL1        0.0175
     23 C         142.0812  140.1254  159.7604 C.ar    1  UNL1        0.0832
     24 C         141.1566  139.1132  160.3691 C.ar    1  UNL1        0.0192
     25 C         141.7154  137.9633  161.1536 C.ar    1  UNL1        0.0015
     26 C         143.1987  137.8256  161.3294 C.ar    1  UNL1        0.0001
     27 C         144.1232  138.8378  160.7206 C.ar    1  UNL1        0.0015
     28 C         143.5645  139.9877  159.9361 C.ar    1  UNL1        0.0192
@<TRIPOS>BOND
     1    10    11    1
     2    11    12   ar
     3    12    13   ar
     4    13     1    1
     5     1     2    2
     6     2     3    1
     7     3     4    1
     8     4     5    2
     9     5    23    1
    10    23    24   ar
    11    24    25   ar
    12    25    26   ar
    13    26    27   ar
    14    27    28   ar
    15     4     6    1
    16     6     7   am
    17     7     8    2
    18    13    14   ar
    19    14    15    1
    20    14    16   ar
    21    16    17    1
    22    17    18   ar
    23    18    19   ar
    24    19    20   ar
    25    20    21   ar
    26    21    22   ar
    27    16    11   ar
    28    22    17   ar
    29     7     2    1
    30    28    23   ar
    31     6     9    1
