@<TRIPOS>MOLECULE
*****
 39 42 0 0 0
SMALL
GASTEIGER

@<TRIPOS>ATOM
      1 C         142.1797  140.5582  169.0565 C.3     1  UNL1        0.0849
      2 C         142.2944  139.0952  169.3668 C.3     1  UNL1        0.0206
      3 C         143.0431  139.4208  170.6251 C.3     1  UNL1        0.0035
      4 C         142.9285  140.8838  170.3147 C.3     1  UNL1        0.0206
      5 C         141.4310  140.2326  167.7981 C.ar    1  UNL1       -0.0077
      6 C         139.9432  140.4150  167.7421 C.ar    1  UNL1       -0.0030
      7 C         139.1945  140.0894  166.4838 C.ar    1  UNL1       -0.0002
      8 C         139.9336  139.5814  165.2814 C.ar    1  UNL1        0.0029
      9 C         141.4214  139.3990  165.3374 C.ar    1  UNL1       -0.0002
     10 C         142.1701  139.7246  166.5957 C.ar    1  UNL1       -0.0030
     11 C         139.1848  139.2558  164.0231 C.ar    1  UNL1        0.0343
     12 C         138.8272  137.8332  163.7099 C.ar    1  UNL1        0.0030
     13 C         138.0784  137.5076  162.4516 C.ar    1  UNL1        0.0002
     14 C         137.6873  138.6047  161.5064 C.ar    1  UNL1        0.0031
     15 C         138.0450  140.0275  161.8196 C.ar    1  UNL1        0.0372
     16 C         138.7938  140.3530  163.0779 C.ar    1  UNL1        0.1467
     17 O         139.1514  141.7757  163.3911 O.3     1  UNL1       -0.4045
     18 C         138.1077  142.8490  163.2993 C.3     1  UNL1        0.5753
     19 F         137.0639  143.9224  163.2076 F       1  UNL1       -0.1328
     20 F         137.4519  142.3173  164.5392 F       1  UNL1       -0.1328
     21 F         138.7634  143.3808  162.0595 F       1  UNL1       -0.1328
     22 N         142.0651  142.0212  168.7461 N.3     1  UNL1       -0.1487
     23 S         142.2795  142.5095  167.3440 S.O2    1  UNL1        0.0638
     24 O         140.8388  142.9196  167.2666 O.2     1  UNL1       -0.1528
     25 O         143.7204  142.0995  167.4216 O.2     1  UNL1       -0.1528
     26 C         142.4939  142.9979  165.9421 C.ar    1  UNL1        0.1224
     27 C         141.3411  143.5463  165.1544 C.ar    1  UNL1        0.0230
     28 C         141.5555  144.0346  163.7524 C.ar    1  UNL1        0.0385
     29 C         142.9227  143.9746  163.1381 C.ar    1  UNL1        0.1444
     30 C         144.0754  143.4262  163.9258 C.ar    1  UNL1        0.0385
     31 C         143.8610  142.9378  165.3278 C.ar    1  UNL1        0.0230
     32 O         143.1370  144.4629  161.7361 O.3     1  UNL1       -0.4236
     33 C         141.9988  144.4615  160.7591 C.3     1  UNL1        0.5087
     34 F         141.8981  143.3783  159.7265 F       1  UNL1       -0.1550
     35 F         140.9613  145.5434  160.8149 F       1  UNL1       -0.1550
     36 C         141.7360  142.9960  169.8377 C.3     1  UNL1        0.1374
     37 O         139.7942  144.6656  170.2753 O.co2   1  UNL1       -0.5477
     38 C         140.3049  143.2571  170.2036 C.2     1  UNL1        0.0683
     39 O         139.3846  142.1097  170.4979 O.co2   1  UNL1       -0.5477
@<TRIPOS>UNITY_ATOM_ATTR
37 1
charge -1
@<TRIPOS>BOND
     1    37    38   ar
     2    38    39   ar
     3    38    36    1
     4    36    22    1
     5    22     1    1
     6     1     5    1
     7     5     6   ar
     8     6     7   ar
     9     7     8   ar
    10     8    11    1
    11    11    12   ar
    12    12    13   ar
    13    13    14   ar
    14    14    15   ar
    15    15    16   ar
    16    16    17    1
    17    17    18    1
    18    18    19    1
    19    18    20    1
    20    18    21    1
    21     8     9   ar
    22     9    10   ar
    23     1     2    1
    24     2     3    1
    25     3     4    1
    26    22    23    1
    27    23    24    2
    28    23    25    2
    29    23    26    1
    30    26    27   ar
    31    27    28   ar
    32    28    29   ar
    33    29    32    1
    34    32    33    1
    35    33    34    1
    36    33    35    1
    37    29    30   ar
    38    30    31   ar
    39     4     1    1
    40    31    26   ar
    41    10     5   ar
    42    16    11   ar
@<TRIPOS>MOLECULE
*****
 39 42 0 0 0
SMALL
GASTEIGER

@<TRIPOS>ATOM
      1 C         138.6887  139.9878  163.3089 C.3     1  UNL1        0.0849
      2 C         138.7530  138.4897  163.2719 C.3     1  UNL1        0.0206
      3 C         138.0199  138.4906  161.9633 C.3     1  UNL1        0.0035
      4 C         137.9557  139.9887  162.0003 C.3     1  UNL1        0.0206
      5 C         139.4218  139.9870  164.6176 C.ar    1  UNL1       -0.0077
      6 C         138.6684  139.7869  165.8992 C.ar    1  UNL1       -0.0030
      7 C         139.4015  139.7860  167.2078 C.ar    1  UNL1       -0.0002
      8 C         140.8880  139.9853  167.2349 C.ar    1  UNL1        0.0029
      9 C         141.6414  140.1853  165.9533 C.ar    1  UNL1       -0.0002
     10 C         140.9083  140.1862  164.6447 C.ar    1  UNL1       -0.0030
     11 C         141.6211  139.9844  168.5436 C.ar    1  UNL1        0.0343
     12 C         142.4319  138.7891  168.9483 C.ar    1  UNL1        0.0030
     13 C         143.1650  138.7882  170.2570 C.ar    1  UNL1        0.0002
     14 C         143.0872  139.9827  171.1609 C.ar    1  UNL1        0.0031
     15 C         142.2764  141.1780  170.7562 C.ar    1  UNL1        0.0372
     16 C         141.5433  141.1789  169.4476 C.ar    1  UNL1        0.1467
     17 O         140.7325  142.3742  169.0428 O.3     1  UNL1       -0.4045
     18 C         139.9448  143.1295  170.0719 C.3     1  UNL1        0.5753
     19 F         139.1570  143.8847  171.1011 F       1  UNL1       -0.1328
     20 F         140.8367  144.3202  169.8808 F       1  UNL1       -0.1328
     21 F         139.0528  141.9387  170.2631 F       1  UNL1       -0.1328
     22 N         138.6245  141.4860  163.3460 N.3     1  UNL1       -0.1487
     23 S         138.9835  142.2825  162.1266 S.O2    1  UNL1        0.0638
     24 O         137.5589  142.7354  162.0031 O.2     1  UNL1       -0.1528
     25 O         140.4082  141.8295  162.2502 O.2     1  UNL1       -0.1528
     26 C         139.3425  143.0789  160.9073 C.ar    1  UNL1        0.1224
     27 C         139.9824  144.4277  161.0540 C.ar    1  UNL1        0.0230
     28 C         140.3414  145.2241  159.8347 C.ar    1  UNL1        0.0385
     29 C         140.0604  144.6719  158.4687 C.ar    1  UNL1        0.1444
     30 C         139.4205  143.3233  158.3219 C.ar    1  UNL1        0.0385
     31 C         139.0615  142.5267  159.5412 C.ar    1  UNL1        0.0230
     32 O         140.4194  145.4684  157.2494 O.3     1  UNL1       -0.4236
     33 C         139.3678  146.2695  156.5404 C.3     1  UNL1        0.5087
     34 F         139.1688  147.7161  156.8832 F       1  UNL1       -0.1550
     35 F         138.5153  145.6238  155.4886 F       1  UNL1       -0.1550
     36 C         138.2012  142.1877  164.6023 C.3     1  UNL1        0.1374
     37 O         138.3636  144.7807  164.6150 O.co2   1  UNL1       -0.5477
     38 C         138.9002  143.4435  165.0319 C.2     1  UNL1        0.0683
     39 O         140.1359  143.3620  165.8783 O.co2   1  UNL1       -0.5477
@<TRIPOS>UNITY_ATOM_ATTR
37 1
charge -1
@<TRIPOS>BOND
     1    37    38   ar
     2    38    39   ar
     3    38    36    1
     4    36    22    1
     5    22     1    1
     6     1     5    1
     7     5     6   ar
     8     6     7   ar
     9     7     8   ar
    10     8    11    1
    11    11    12   ar
    12    12    13   ar
    13    13    14   ar
    14    14    15   ar
    15    15    16   ar
    16    16    17    1
    17    17    18    1
    18    18    19    1
    19    18    20    1
    20    18    21    1
    21     8     9   ar
    22     9    10   ar
    23     1     2    1
    24     2     3    1
    25     3     4    1
    26    22    23    1
    27    23    24    2
    28    23    25    2
    29    23    26    1
    30    26    27   ar
    31    27    28   ar
    32    28    29   ar
    33    29    32    1
    34    32    33    1
    35    33    34    1
    36    33    35    1
    37    29    30   ar
    38    30    31   ar
    39     4     1    1
    40    31    26   ar
    41    10     5   ar
    42    16    11   ar
@<TRIPOS>MOLECULE
*****
 39 42 0 0 0
SMALL
GASTEIGER

@<TRIPOS>ATOM
      1 C         139.5857  142.8620  162.2856 C.3     1  UNL1        0.0849
      2 C         138.1650  142.8193  161.8065 C.3     1  UNL1        0.0206
      3 C         137.7993  143.8858  162.7958 C.3     1  UNL1        0.0035
      4 C         139.2200  143.9286  163.2749 C.3     1  UNL1        0.0206
      5 C         139.9515  141.7954  161.2963 C.ar    1  UNL1       -0.0077
      6 C         139.6374  140.3588  161.5919 C.ar    1  UNL1       -0.0030
      7 C         140.0032  139.2923  160.6026 C.ar    1  UNL1       -0.0002
      8 C         140.6830  139.6624  159.3177 C.ar    1  UNL1        0.0029
      9 C         140.9970  141.0990  159.0222 C.ar    1  UNL1       -0.0002
     10 C         140.6313  142.1655  160.0114 C.ar    1  UNL1       -0.0030
     11 C         141.0488  138.5958  158.3284 C.ar    1  UNL1        0.0343
     12 C         140.0032  138.0319  157.4126 C.ar    1  UNL1        0.0030
     13 C         140.3690  136.9653  156.4233 C.ar    1  UNL1        0.0002
     14 C         141.7803  136.4626  156.3499 C.ar    1  UNL1        0.0031
     15 C         142.8259  137.0266  157.2658 C.ar    1  UNL1        0.0372
     16 C         142.4601  138.0931  158.2550 C.ar    1  UNL1        0.1467
     17 O         143.5057  138.6571  159.1709 O.3     1  UNL1       -0.4045
     18 C         143.5058  138.2899  160.6253 C.3     1  UNL1        0.5753
     19 F         143.5058  137.9227  162.0796 F       1  UNL1       -0.1328
     20 F         143.1440  136.8785  160.2689 F       1  UNL1       -0.1328
     21 F         143.8675  139.7013  160.9816 F       1  UNL1       -0.1328
     22 N         141.0065  142.9048  162.7647 N.3     1  UNL1       -0.1487
     23 S         141.4269  142.0733  163.9403 S.O2    1  UNL1        0.0638
     24 O         140.4088  142.7675  164.7954 O.2     1  UNL1       -0.1528
     25 O         142.4451  141.3790  163.0850 O.2     1  UNL1       -0.1528
     26 C         141.8474  141.2418  165.1158 C.ar    1  UNL1        0.1224
     27 C         142.2992  139.8263  164.9100 C.ar    1  UNL1        0.0230
     28 C         142.7196  138.9949  166.0856 C.ar    1  UNL1        0.0385
     29 C         142.6882  139.5788  167.4669 C.ar    1  UNL1        0.1444
     30 C         142.2364  140.9942  167.6726 C.ar    1  UNL1        0.0385
     31 C         141.8159  141.8258  166.4971 C.ar    1  UNL1        0.0230
     32 O         143.1086  138.7474  168.6424 O.3     1  UNL1       -0.4236
     33 C         142.5919  139.0708  170.0130 C.3     1  UNL1        0.5087
     34 F         143.5527  139.3667  171.1262 F       1  UNL1       -0.1550
     35 F         141.1144  139.0983  170.2703 F       1  UNL1       -0.1550
     36 C         142.0068  143.7790  162.0683 C.3     1  UNL1        0.1374
     37 O         144.3171  144.8485  162.5869 O.co2   1  UNL1       -0.5477
     38 C         142.8467  144.7363  162.8610 C.2     1  UNL1        0.0683
     39 O         142.2160  145.5814  163.9279 O.co2   1  UNL1       -0.5477
@<TRIPOS>UNITY_ATOM_ATTR
37 1
charge -1
@<TRIPOS>BOND
     1    37    38   ar
     2    38    39   ar
     3    38    36    1
     4    36    22    1
     5    22     1    1
     6     1     5    1
     7     5     6   ar
     8     6     7   ar
     9     7     8   ar
    10     8    11    1
    11    11    12   ar
    12    12    13   ar
    13    13    14   ar
    14    14    15   ar
    15    15    16   ar
    16    16    17    1
    17    17    18    1
    18    18    19    1
    19    18    20    1
    20    18    21    1
    21     8     9   ar
    22     9    10   ar
    23     1     2    1
    24     2     3    1
    25     3     4    1
    26    22    23    1
    27    23    24    2
    28    23    25    2
    29    23    26    1
    30    26    27   ar
    31    27    28   ar
    32    28    29   ar
    33    29    32    1
    34    32    33    1
    35    33    34    1
    36    33    35    1
    37    29    30   ar
    38    30    31   ar
    39     4     1    1
    40    31    26   ar
    41    10     5   ar
    42    16    11   ar
@<TRIPOS>MOLECULE
*****
 39 42 0 0 0
SMALL
GASTEIGER

@<TRIPOS>ATOM
      1 C         140.0556  144.3736  161.4712 C.3     1  UNL1        0.0849
      2 C         139.3174  145.2455  162.4432 C.3     1  UNL1        0.0206
      3 C         139.6571  146.4519  161.6191 C.3     1  UNL1        0.0035
      4 C         140.3953  145.5800  160.6471 C.3     1  UNL1        0.0206
      5 C         139.7159  143.1671  162.2953 C.ar    1  UNL1       -0.0077
      6 C         138.3245  142.6074  162.2674 C.ar    1  UNL1       -0.0030
      7 C         137.9849  141.4010  163.0915 C.ar    1  UNL1       -0.0002
      8 C         139.0365  140.7543  163.9434 C.ar    1  UNL1        0.0029
      9 C         140.4279  141.3140  163.9712 C.ar    1  UNL1       -0.0002
     10 C         140.7676  142.5204  163.1472 C.ar    1  UNL1       -0.0030
     11 C         138.6968  139.5478  164.7675 C.ar    1  UNL1        0.0343
     12 C         138.0123  139.7127  166.0919 C.ar    1  UNL1        0.0030
     13 C         137.6725  138.5062  166.9160 C.ar    1  UNL1        0.0002
     14 C         138.0174  137.1349  166.4156 C.ar    1  UNL1        0.0031
     15 C         138.7019  136.9700  165.0911 C.ar    1  UNL1        0.0372
     16 C         139.0416  138.1764  164.2671 C.ar    1  UNL1        0.1467
     17 O         139.7262  138.0115  162.9425 O.3     1  UNL1       -0.4045
     18 C         139.0204  138.4066  161.6792 C.3     1  UNL1        0.5753
     19 F         138.3147  138.8017  160.4160 F       1  UNL1       -0.1328
     20 F         140.2551  139.1191  161.2123 F       1  UNL1       -0.1328
     21 F         137.7858  137.6941  162.1462 F       1  UNL1       -0.1328
     22 N         140.7938  143.5018  160.4992 N.3     1  UNL1       -0.1487
     23 S         140.0344  142.7002  159.4839 S.O2    1  UNL1        0.0638
     24 O         139.2532  143.9228  159.1031 O.2     1  UNL1       -0.1528
     25 O         140.8156  141.4776  159.8647 O.2     1  UNL1       -0.1528
     26 C         139.2749  141.8987  158.4687 C.ar    1  UNL1        0.1224
     27 C         139.8288  140.5948  157.9755 C.ar    1  UNL1        0.0230
     28 C         139.0694  139.7933  156.9602 C.ar    1  UNL1        0.0385
     29 C         137.7560  140.2956  156.4381 C.ar    1  UNL1        0.1444
     30 C         137.2020  141.5994  156.9312 C.ar    1  UNL1        0.0385
     31 C         137.9615  142.4010  157.9465 C.ar    1  UNL1        0.0230
     32 O         136.9965  139.4942  155.4229 O.3     1  UNL1       -0.4236
     33 C         135.6674  139.9801  154.9253 C.3     1  UNL1        0.5087
     34 F         135.5926  141.1996  154.0551 F       1  UNL1       -0.1550
     35 F         134.4132  139.2466  155.2980 F       1  UNL1       -0.1550
     36 C         142.2916  143.4314  160.5424 C.3     1  UNL1        0.1374
     37 O         142.8109  144.5584  158.2598 O.co2   1  UNL1       -0.5477
     38 C         143.0819  143.4818  159.2684 C.2     1  UNL1        0.0683
     39 O         144.1430  142.4553  159.0031 O.co2   1  UNL1       -0.5477
@<TRIPOS>UNITY_ATOM_ATTR
37 1
charge -1
@<TRIPOS>BOND
     1    37    38   ar
     2    38    39   ar
     3    38    36    1
     4    36    22    1
     5    22     1    1
     6     1     5    1
     7     5     6   ar
     8     6     7   ar
     9     7     8   ar
    10     8    11    1
    11    11    12   ar
    12    12    13   ar
    13    13    14   ar
    14    14    15   ar
    15    15    16   ar
    16    16    17    1
    17    17    18    1
    18    18    19    1
    19    18    20    1
    20    18    21    1
    21     8     9   ar
    22     9    10   ar
    23     1     2    1
    24     2     3    1
    25     3     4    1
    26    22    23    1
    27    23    24    2
    28    23    25    2
    29    23    26    1
    30    26    27   ar
    31    27    28   ar
    32    28    29   ar
    33    29    32    1
    34    32    33    1
    35    33    34    1
    36    33    35    1
    37    29    30   ar
    38    30    31   ar
    39     4     1    1
    40    31    26   ar
    41    10     5   ar
    42    16    11   ar
@<TRIPOS>MOLECULE
*****
 39 42 0 0 0
SMALL
GASTEIGER

@<TRIPOS>ATOM
      1 C         141.8957  141.1459  162.0315 C.3     1  UNL1        0.0849
      2 C         141.4402  139.7200  162.1266 C.3     1  UNL1        0.0206
      3 C         141.7951  139.5103  160.6844 C.3     1  UNL1        0.0035
      4 C         142.2506  140.9363  160.5893 C.3     1  UNL1        0.0206
      5 C         141.5407  141.3556  163.4738 C.ar    1  UNL1       -0.0077
      6 C         142.4739  140.8888  164.5513 C.ar    1  UNL1       -0.0030
      7 C         142.1190  141.0985  165.9935 C.ar    1  UNL1       -0.0002
      8 C         140.8308  141.7750  166.3582 C.ar    1  UNL1        0.0029
      9 C         139.8976  142.2419  165.2806 C.ar    1  UNL1       -0.0002
     10 C         140.2526  142.0322  163.8384 C.ar    1  UNL1       -0.0030
     11 C         140.4759  141.9847  167.8004 C.ar    1  UNL1        0.0343
     12 C         140.6126  143.3456  168.4163 C.ar    1  UNL1        0.0030
     13 C         140.2577  143.5553  169.8586 C.ar    1  UNL1        0.0002
     14 C         139.7660  142.4041  170.6850 C.ar    1  UNL1        0.0031
     15 C         139.6293  141.0431  170.0690 C.ar    1  UNL1        0.0372
     16 C         139.9842  140.8335  168.6268 C.ar    1  UNL1        0.1467
     17 O         139.8474  139.4726  168.0109 O.3     1  UNL1       -0.4045
     18 C         138.6435  139.1435  167.1789 C.3     1  UNL1        0.5753
     19 F         137.4397  138.8144  166.3468 F       1  UNL1       -0.1328
     20 F         139.5198  138.9924  165.9708 F       1  UNL1       -0.1328
     21 F         137.7673  139.2946  168.3869 F       1  UNL1       -0.1328
     22 N         142.3511  142.5719  161.9363 N.3     1  UNL1       -0.1487
     23 S         142.0109  143.3887  160.7250 S.O2    1  UNL1        0.0638
     24 O         143.4610  143.4270  160.3435 O.2     1  UNL1       -0.1528
     25 O         140.5607  143.3504  161.1065 O.2     1  UNL1       -0.1528
     26 C         141.6707  144.2054  159.5138 C.ar    1  UNL1        0.1224
     27 C         142.5264  144.1169  158.2849 C.ar    1  UNL1        0.0230
     28 C         142.1862  144.9337  157.0737 C.ar    1  UNL1        0.0385
     29 C         140.9903  145.8390  157.0912 C.ar    1  UNL1        0.1444
     30 C         140.1346  145.9275  158.3199 C.ar    1  UNL1        0.0385
     31 C         140.4748  145.1107  159.5313 C.ar    1  UNL1        0.0230
     32 O         140.6501  146.6557  155.8799 O.3     1  UNL1       -0.4236
     33 C         139.2169  146.9617  155.5600 C.3     1  UNL1        0.5087
     34 F         138.1824  145.8787  155.6421 F       1  UNL1       -0.1550
     35 F         138.8183  148.3508  155.1579 F       1  UNL1       -0.1550
     36 C         143.1469  143.1812  163.0523 C.3     1  UNL1        0.1374
     37 O         141.8893  145.2475  164.0004 O.co2   1  UNL1       -0.5477
     38 C         143.0791  144.6587  163.3021 C.2     1  UNL1        0.0683
     39 O         144.2011  145.5474  162.8535 O.co2   1  UNL1       -0.5477
@<TRIPOS>UNITY_ATOM_ATTR
37 1
charge -1
@<TRIPOS>BOND
     1    37    38   ar
     2    38    39   ar
     3    38    36    1
     4    36    22    1
     5    22     1    1
     6     1     5    1
     7     5     6   ar
     8     6     7   ar
     9     7     8   ar
    10     8    11    1
    11    11    12   ar
    12    12    13   ar
    13    13    14   ar
    14    14    15   ar
    15    15    16   ar
    16    16    17    1
    17    17    18    1
    18    18    19    1
    19    18    20    1
    20    18    21    1
    21     8     9   ar
    22     9    10   ar
    23     1     2    1
    24     2     3    1
    25     3     4    1
    26    22    23    1
    27    23    24    2
    28    23    25    2
    29    23    26    1
    30    26    27   ar
    31    27    28   ar
    32    28    29   ar
    33    29    32    1
    34    32    33    1
    35    33    34    1
    36    33    35    1
    37    29    30   ar
    38    30    31   ar
    39     4     1    1
    40    31    26   ar
    41    10     5   ar
    42    16    11   ar
@<TRIPOS>MOLECULE
*****
 39 42 0 0 0
SMALL
GASTEIGER

@<TRIPOS>ATOM
      1 C         142.6210  138.8885  162.2807 C.3     1  UNL1        0.0849
      2 C         144.0183  138.5250  162.6870 C.3     1  UNL1        0.0206
      3 C         144.1966  137.7731  161.4015 C.3     1  UNL1        0.0035
      4 C         142.7992  138.1365  160.9951 C.3     1  UNL1        0.0206
      5 C         142.4426  139.6405  163.5663 C.ar    1  UNL1       -0.0077
      6 C         141.6134  139.0534  164.6698 C.ar    1  UNL1       -0.0030
      7 C         141.4351  139.8054  165.9553 C.ar    1  UNL1       -0.0002
      8 C         142.0861  141.1445  166.1374 C.ar    1  UNL1        0.0029
      9 C         142.9153  141.7315  165.0340 C.ar    1  UNL1       -0.0002
     10 C         143.0936  140.9795  163.7484 C.ar    1  UNL1       -0.0030
     11 C         141.9078  141.8965  167.4230 C.ar    1  UNL1        0.0343
     12 C         142.9811  141.8569  168.4701 C.ar    1  UNL1        0.0030
     13 C         142.8027  142.6089  169.7557 C.ar    1  UNL1        0.0002
     14 C         141.5511  143.4004  169.9942 C.ar    1  UNL1        0.0031
     15 C         140.4777  143.4399  168.9471 C.ar    1  UNL1        0.0372
     16 C         140.6561  142.6880  167.6615 C.ar    1  UNL1        0.1467
     17 O         139.5827  142.7274  166.6144 O.3     1  UNL1       -0.4045
     18 C         139.5390  143.8562  165.6274 C.3     1  UNL1        0.5753
     19 F         139.4953  144.9849  164.6405 F       1  UNL1       -0.1328
     20 F         140.0602  142.9418  164.5586 F       1  UNL1       -0.1328
     21 F         139.0178  144.7705  166.6962 F       1  UNL1       -0.1328
     22 N         141.2236  139.2519  161.8743 N.3     1  UNL1       -0.1487
     23 S         140.9397  140.6050  161.2923 S.O2    1  UNL1        0.0638
     24 O         139.8865  140.8328  162.3359 O.2     1  UNL1       -0.1528
     25 O         141.9929  140.3772  160.2488 O.2     1  UNL1       -0.1528
     26 C         140.6557  141.9580  160.7104 C.ar    1  UNL1        0.1224
     27 C         141.1562  143.1918  161.4015 C.ar    1  UNL1        0.0230
     28 C         140.8723  144.5448  160.8196 C.ar    1  UNL1        0.0385
     29 C         140.0879  144.6642  159.5466 C.ar    1  UNL1        0.1444
     30 C         139.5874  143.4305  158.8556 C.ar    1  UNL1        0.0385
     31 C         139.8713  142.0774  159.4375 C.ar    1  UNL1        0.0230
     32 O         139.8039  146.0172  158.9647 O.3     1  UNL1       -0.4236
     33 C         140.1460  146.3046  157.5327 C.3     1  UNL1        0.5087
     34 F         141.4712  145.8743  156.9773 F       1  UNL1       -0.1550
     35 F         139.1628  147.0223  156.6563 F       1  UNL1       -0.1550
     36 C         140.1100  138.2624  162.0499 C.3     1  UNL1        0.1374
     37 O         137.5697  138.1772  161.5118 O.co2   1  UNL1       -0.5477
     38 C         138.9958  138.2015  161.0475 C.2     1  UNL1        0.0683
     39 O         139.3078  138.1648  159.5807 O.co2   1  UNL1       -0.5477
@<TRIPOS>UNITY_ATOM_ATTR
37 1
charge -1
@<TRIPOS>BOND
     1    37    38   ar
     2    38    39   ar
     3    38    36    1
     4    36    22    1
     5    22     1    1
     6     1     5    1
     7     5     6   ar
     8     6     7   ar
     9     7     8   ar
    10     8    11    1
    11    11    12   ar
    12    12    13   ar
    13    13    14   ar
    14    14    15   ar
    15    15    16   ar
    16    16    17    1
    17    17    18    1
    18    18    19    1
    19    18    20    1
    20    18    21    1
    21     8     9   ar
    22     9    10   ar
    23     1     2    1
    24     2     3    1
    25     3     4    1
    26    22    23    1
    27    23    24    2
    28    23    25    2
    29    23    26    1
    30    26    27   ar
    31    27    28   ar
    32    28    29   ar
    33    29    32    1
    34    32    33    1
    35    33    34    1
    36    33    35    1
    37    29    30   ar
    38    30    31   ar
    39     4     1    1
    40    31    26   ar
    41    10     5   ar
    42    16    11   ar
@<TRIPOS>MOLECULE
*****
 39 42 0 0 0
SMALL
GASTEIGER

@<TRIPOS>ATOM
      1 C         140.5891  144.0666  162.5134 C.3     1  UNL1        0.0849
      2 C         140.6361  145.4236  163.1507 C.3     1  UNL1        0.0206
      3 C         140.2250  146.0484  161.8504 C.3     1  UNL1        0.0035
      4 C         140.1781  144.6914  161.2132 C.3     1  UNL1        0.0206
      5 C         141.0002  143.4417  163.8137 C.ar    1  UNL1       -0.0077
      6 C         142.4250  143.0246  164.0280 C.ar    1  UNL1       -0.0030
      7 C         142.8360  142.3998  165.3282 C.ar    1  UNL1       -0.0002
      8 C         141.8222  142.1920  166.4141 C.ar    1  UNL1        0.0029
      9 C         140.3974  142.6091  166.1998 C.ar    1  UNL1       -0.0002
     10 C         139.9864  143.2340  164.8995 C.ar    1  UNL1       -0.0030
     11 C         142.2332  141.5672  167.7144 C.ar    1  UNL1        0.0343
     12 C         142.8449  142.4121  168.7923 C.ar    1  UNL1        0.0030
     13 C         143.2560  141.7872  170.0925 C.ar    1  UNL1        0.0002
     14 C         143.0553  140.3174  170.3148 C.ar    1  UNL1        0.0031
     15 C         142.4436  139.4725  169.2369 C.ar    1  UNL1        0.0372
     16 C         142.0326  140.0974  167.9367 C.ar    1  UNL1        0.1467
     17 O         141.4208  139.2524  166.8587 O.3     1  UNL1       -0.4045
     18 C         142.2541  138.8009  165.6961 C.3     1  UNL1        0.5753
     19 F         143.0875  138.3494  164.5335 F       1  UNL1       -0.1328
     20 F         141.2696  139.4212  164.7495 F       1  UNL1       -0.1328
     21 F         143.2386  138.1806  166.6427 F       1  UNL1       -0.1328
     22 N         140.5422  142.7095  161.8761 N.3     1  UNL1       -0.1487
     23 S         141.5520  142.3360  160.8316 S.O2    1  UNL1        0.0638
     24 O         142.4545  143.4337  161.3117 O.2     1  UNL1       -0.1528
     25 O         140.6494  141.2383  160.3515 O.2     1  UNL1       -0.1528
     26 C         142.5618  141.9626  159.7872 C.ar    1  UNL1        0.1224
     27 C         143.6851  142.9015  159.4605 C.ar    1  UNL1        0.0230
     28 C         144.6949  142.5281  158.4161 C.ar    1  UNL1        0.0385
     29 C         144.5814  141.2158  157.6983 C.ar    1  UNL1        0.1444
     30 C         143.4581  140.2770  158.0250 C.ar    1  UNL1        0.0385
     31 C         142.4482  140.6504  159.0695 C.ar    1  UNL1        0.0230
     32 O         145.5912  140.8424  156.6539 O.3     1  UNL1       -0.4236
     33 C         146.4615  141.8990  156.0405 C.3     1  UNL1        0.5087
     34 F         145.8410  143.0348  155.2823 F       1  UNL1       -0.1550
     35 F         147.9524  141.8197  156.1852 F       1  UNL1       -0.1550
     36 C         139.4855  141.7259  162.2833 C.3     1  UNL1        0.1374
     37 O         136.9914  141.5615  162.9922 O.co2   1  UNL1       -0.5477
     38 C         138.0391  142.0295  162.0263 C.2     1  UNL1        0.0683
     39 O         137.6407  142.8012  160.8033 O.co2   1  UNL1       -0.5477
@<TRIPOS>UNITY_ATOM_ATTR
37 1
charge -1
@<TRIPOS>BOND
     1    37    38   ar
     2    38    39   ar
     3    38    36    1
     4    36    22    1
     5    22     1    1
     6     1     5    1
     7     5     6   ar
     8     6     7   ar
     9     7     8   ar
    10     8    11    1
    11    11    12   ar
    12    12    13   ar
    13    13    14   ar
    14    14    15   ar
    15    15    16   ar
    16    16    17    1
    17    17    18    1
    18    18    19    1
    19    18    20    1
    20    18    21    1
    21     8     9   ar
    22     9    10   ar
    23     1     2    1
    24     2     3    1
    25     3     4    1
    26    22    23    1
    27    23    24    2
    28    23    25    2
    29    23    26    1
    30    26    27   ar
    31    27    28   ar
    32    28    29   ar
    33    29    32    1
    34    32    33    1
    35    33    34    1
    36    33    35    1
    37    29    30   ar
    38    30    31   ar
    39     4     1    1
    40    31    26   ar
    41    10     5   ar
    42    16    11   ar
@<TRIPOS>MOLECULE
*****
 39 42 0 0 0
SMALL
GASTEIGER

@<TRIPOS>ATOM
      1 C         140.5261  144.2905  162.4406 C.3     1  UNL1        0.0849
      2 C         140.4018  145.6004  163.1607 C.3     1  UNL1        0.0206
      3 C         139.9883  146.2646  161.8809 C.3     1  UNL1        0.0035
      4 C         140.1126  144.9547  161.1609 C.3     1  UNL1        0.0206
      5 C         140.9397  143.6262  163.7204 C.ar    1  UNL1       -0.0077
      6 C         142.2692  142.9379  163.8126 C.ar    1  UNL1       -0.0030
      7 C         142.6827  142.2737  165.0923 C.ar    1  UNL1       -0.0002
      8 C         141.7667  142.2977  166.2798 C.ar    1  UNL1        0.0029
      9 C         140.4372  142.9860  166.1877 C.ar    1  UNL1       -0.0002
     10 C         140.0237  143.6502  164.9079 C.ar    1  UNL1       -0.0030
     11 C         142.1803  141.6334  167.5596 C.ar    1  UNL1        0.0343
     12 C         142.8985  142.4207  168.6152 C.ar    1  UNL1        0.0030
     13 C         143.3120  141.7564  169.8950 C.ar    1  UNL1        0.0002
     14 C         143.0073  140.3049  170.1191 C.ar    1  UNL1        0.0031
     15 C         142.2891  139.5176  169.0634 C.ar    1  UNL1        0.0372
     16 C         141.8756  140.1819  167.7837 C.ar    1  UNL1        0.1467
     17 O         141.1573  139.3947  166.7280 O.3     1  UNL1       -0.4045
     18 C         139.6957  139.6271  166.4835 C.3     1  UNL1        0.5753
     19 F         138.2342  139.8595  166.2389 F       1  UNL1       -0.1328
     20 F         139.4245  139.4642  167.9497 F       1  UNL1       -0.1328
     21 F         139.9670  139.7899  165.0172 F       1  UNL1       -0.1328
     22 N         140.6505  142.9805  161.7205 N.3     1  UNL1       -0.1487
     23 S         141.5384  142.8676  160.5168 S.O2    1  UNL1        0.0638
     24 O         142.5295  143.7908  161.1614 O.2     1  UNL1       -0.1528
     25 O         140.5473  141.9445  159.8722 O.2     1  UNL1       -0.1528
     26 C         142.4264  142.7548  159.3132 C.ar    1  UNL1        0.1224
     27 C         143.9121  142.6408  159.4853 C.ar    1  UNL1        0.0230
     28 C         144.8001  142.5279  158.2816 C.ar    1  UNL1        0.0385
     29 C         144.2023  142.5291  156.9059 C.ar    1  UNL1        0.1444
     30 C         142.7166  142.6431  156.7338 C.ar    1  UNL1        0.0385
     31 C         141.8286  142.7560  157.9374 C.ar    1  UNL1        0.0230
     32 O         145.0903  142.4162  155.7022 O.3     1  UNL1       -0.4236
     33 C         146.5609  142.1761  155.8749 C.3     1  UNL1        0.5087
     34 F         147.1608  140.8659  155.4588 F       1  UNL1       -0.1550
     35 F         147.4315  143.2463  156.4638 F       1  UNL1       -0.1550
     36 C         139.8869  141.7834  162.2041 C.3     1  UNL1        0.1374
     37 O         137.6406  140.9234  163.1862 O.co2   1  UNL1       -0.5477
     38 C         138.3875  141.8137  162.2379 C.2     1  UNL1        0.0683
     39 O         137.6352  142.7342  161.3233 O.co2   1  UNL1       -0.5477
@<TRIPOS>UNITY_ATOM_ATTR
37 1
charge -1
@<TRIPOS>BOND
     1    37    38   ar
     2    38    39   ar
     3    38    36    1
     4    36    22    1
     5    22     1    1
     6     1     5    1
     7     5     6   ar
     8     6     7   ar
     9     7     8   ar
    10     8    11    1
    11    11    12   ar
    12    12    13   ar
    13    13    14   ar
    14    14    15   ar
    15    15    16   ar
    16    16    17    1
    17    17    18    1
    18    18    19    1
    19    18    20    1
    20    18    21    1
    21     8     9   ar
    22     9    10   ar
    23     1     2    1
    24     2     3    1
    25     3     4    1
    26    22    23    1
    27    23    24    2
    28    23    25    2
    29    23    26    1
    30    26    27   ar
    31    27    28   ar
    32    28    29   ar
    33    29    32    1
    34    32    33    1
    35    33    34    1
    36    33    35    1
    37    29    30   ar
    38    30    31   ar
    39     4     1    1
    40    31    26   ar
    41    10     5   ar
    42    16    11   ar
@<TRIPOS>MOLECULE
*****
 39 42 0 0 0
SMALL
GASTEIGER

@<TRIPOS>ATOM
      1 C         140.6358  143.7929  162.0185 C.3     1  UNL1        0.0849
      2 C         140.3030  145.2096  162.3820 C.3     1  UNL1        0.0206
      3 C         140.3474  145.5919  160.9322 C.3     1  UNL1        0.0035
      4 C         140.6802  144.1752  160.5688 C.3     1  UNL1        0.0206
      5 C         140.5914  143.4104  163.4683 C.ar    1  UNL1       -0.0077
      6 C         141.8620  143.0926  164.1994 C.ar    1  UNL1       -0.0030
      7 C         141.8175  142.7102  165.6491 C.ar    1  UNL1       -0.0002
      8 C         140.5025  142.6457  166.3678 C.ar    1  UNL1        0.0029
      9 C         139.2319  142.9635  165.6367 C.ar    1  UNL1       -0.0002
     10 C         139.2763  143.3459  164.1870 C.ar    1  UNL1       -0.0030
     11 C         140.4581  142.2632  167.8176 C.ar    1  UNL1        0.0343
     12 C         140.5441  143.3229  168.8757 C.ar    1  UNL1        0.0030
     13 C         140.4997  142.9405  170.3255 C.ar    1  UNL1        0.0002
     14 C         140.3692  141.4984  170.7171 C.ar    1  UNL1        0.0031
     15 C         140.2832  140.4387  169.6589 C.ar    1  UNL1        0.0372
     16 C         140.3276  140.8211  168.2092 C.ar    1  UNL1        0.1467
     17 O         140.2415  139.7615  167.1510 O.3     1  UNL1       -0.4045
     18 C         138.9155  139.4181  166.5395 C.3     1  UNL1        0.5753
     19 F         137.5896  139.0748  165.9280 F       1  UNL1       -0.1328
     20 F         138.3455  139.1841  167.9071 F       1  UNL1       -0.1328
     21 F         139.4856  139.6521  165.1719 F       1  UNL1       -0.1328
     22 N         140.9685  142.3761  161.6551 N.3     1  UNL1       -0.1487
     23 S         141.9640  142.0945  160.5689 S.O2    1  UNL1        0.0638
     24 O         140.8559  141.6200  159.6764 O.2     1  UNL1       -0.1528
     25 O         143.0722  142.5691  161.4615 O.2     1  UNL1       -0.1528
     26 C         142.9594  141.8129  159.4827 C.ar    1  UNL1        0.1224
     27 C         144.0257  142.8185  159.1633 C.ar    1  UNL1        0.0230
     28 C         145.0211  142.5369  158.0772 C.ar    1  UNL1        0.0385
     29 C         144.9503  141.2496  157.3104 C.ar    1  UNL1        0.1444
     30 C         143.8842  140.2440  157.6297 C.ar    1  UNL1        0.0385
     31 C         142.8887  140.5256  158.7159 C.ar    1  UNL1        0.0230
     32 O         145.9458  140.9680  156.2242 O.3     1  UNL1       -0.4236
     33 C         146.9505  142.0128  155.8383 C.3     1  UNL1        0.5087
     34 F         146.5604  143.1198  154.9044 F       1  UNL1       -0.1550
     35 F         148.3454  141.9506  156.3864 F       1  UNL1       -0.1550
     36 C         140.3058  141.2410  162.3778 C.3     1  UNL1        0.1374
     37 O         142.1520  139.6749  163.3207 O.co2   1  UNL1       -0.5477
     38 C         140.9672  139.8956  162.4276 C.2     1  UNL1        0.0683
     39 O         140.4438  138.7708  161.5844 O.co2   1  UNL1       -0.5477
@<TRIPOS>UNITY_ATOM_ATTR
37 1
charge -1
@<TRIPOS>BOND
     1    37    38   ar
     2    38    39   ar
     3    38    36    1
     4    36    22    1
     5    22     1    1
     6     1     5    1
     7     5     6   ar
     8     6     7   ar
     9     7     8   ar
    10     8    11    1
    11    11    12   ar
    12    12    13   ar
    13    13    14   ar
    14    14    15   ar
    15    15    16   ar
    16    16    17    1
    17    17    18    1
    18    18    19    1
    19    18    20    1
    20    18    21    1
    21     8     9   ar
    22     9    10   ar
    23     1     2    1
    24     2     3    1
    25     3     4    1
    26    22    23    1
    27    23    24    2
    28    23    25    2
    29    23    26    1
    30    26    27   ar
    31    27    28   ar
    32    28    29   ar
    33    29    32    1
    34    32    33    1
    35    33    34    1
    36    33    35    1
    37    29    30   ar
    38    30    31   ar
    39     4     1    1
    40    31    26   ar
    41    10     5   ar
    42    16    11   ar
