@<TRIPOS>MOLECULE
*****
 33 38 0 0 0
SMALL
GASTEIGER

@<TRIPOS>ATOM
      1 O         137.7168  143.2172  161.3120 O.2     1  UNL1       -0.2443
      2 C         138.7234  142.5465  160.4249 C.ar    1  UNL1        0.3532
      3 N         138.7501  141.0506  160.3180 N.ar    1  UNL1       -0.2701
      4 C         139.7566  140.3799  159.4310 C.ar    1  UNL1        0.0965
      5 S         140.0212  138.9350  159.1263 S.2     1  UNL1       -0.0728
      6 C         141.1645  138.8674  158.1578 C.ar    1  UNL1        0.0210
      7 C         141.6067  140.2704  157.8638 C.ar    1  UNL1       -0.0126
      8 C         140.7366  141.2051  158.6507 C.ar    1  UNL1        0.0545
      9 C         140.7099  142.7010  158.7575 C.ar    1  UNL1        0.1717
     10 N         141.5443  143.7683  158.1136 N.ar    1  UNL1       -0.2032
     11 C         141.0534  145.0986  158.6028 C.ar    1  UNL1        0.2214
     12 N         139.9156  144.8535  159.5490 N.ar    1  UNL1       -0.1372
     13 N         139.7033  143.3717  159.6446 N.ar    1  UNL1       -0.1606
     14 C         142.7445  140.5154  156.9176 C.3     1  UNL1        0.0441
     15 C         143.4402  139.3576  156.2654 C.3     1  UNL1        0.0771
     16 N         142.9981  137.9547  156.5594 N.3     1  UNL1       -0.2682
     17 C         141.8603  137.7096  157.5055 C.3     1  UNL1        0.1054
     18 C         137.7701  140.2253  161.0983 C.3     1  UNL1        0.1400
     19 C         138.0273  139.9250  162.5453 C.ar    1  UNL1        0.0281
     20 C         137.7768  140.9762  163.5856 C.ar    1  UNL1        0.0007
     21 C         138.0340  140.6758  165.0325 C.ar    1  UNL1        0.0113
     22 C         138.5416  139.3241  165.4392 C.ar    1  UNL1        0.0599
     23 CL        138.7988  139.0238  166.8861 Cl      1  UNL1       -0.0822
     24 C         138.7920  138.2729  164.3990 C.ar    1  UNL1        0.0408
     25 C         138.5349  138.5733  162.9520 C.ar    1  UNL1        0.1388
     26 F         138.7853  137.5221  161.9117 F       1  UNL1       -0.2044
     27 C         143.6939  136.7969  155.9071 C.3     1  UNL1        0.0725
     28 C         143.1302  135.4131  156.0374 C.3     1  UNL1        0.0210
     29 C         141.9720  134.9914  155.1825 C.3     1  UNL1        0.0335
     30 C         141.4083  133.6075  155.3129 C.3     1  UNL1        0.1422
     31 O         142.0027  132.6452  156.2981 O.3     1  UNL1       -0.3538
     32 C         143.1609  133.0669  157.1529 C.3     1  UNL1        0.1422
     33 C         143.7246  134.4507  157.0226 C.3     1  UNL1        0.0335
@<TRIPOS>BOND
     1     1     2    2
     2     2     3   ar
     3     3    18    1
     4    18    19    1
     5    19    20   ar
     6    20    21   ar
     7    21    22   ar
     8    22    23    1
     9    22    24   ar
    10    24    25   ar
    11    25    26    1
    12     3     4   ar
    13     4     5   ar
    14     5     6   ar
    15     6     7   ar
    16     7     8   ar
    17     8     9   ar
    18     9    10   ar
    19    10    11   ar
    20    11    12   ar
    21    12    13   ar
    22     7    14    1
    23    14    15    1
    24    15    16    1
    25    16    27    1
    26    27    28    1
    27    28    29    1
    28    29    30    1
    29    30    31    1
    30    31    32    1
    31    32    33    1
    32    16    17    1
    33    13     2   ar
    34    33    28    1
    35    25    19   ar
    36     8     4   ar
    37    13     9   ar
    38    17     6    1
@<TRIPOS>MOLECULE
*****
 33 38 0 0 0
SMALL
GASTEIGER

@<TRIPOS>ATOM
      1 O         141.8928  145.5771  159.2666 O.2     1  UNL1       -0.2443
      2 C         140.8060  144.9412  158.4515 C.ar    1  UNL1        0.3532
      3 N         140.1619  143.6706  158.9213 N.ar    1  UNL1       -0.2701
      4 C         139.0752  143.0348  158.1063 C.ar    1  UNL1        0.0965
      5 S         138.2614  141.7917  158.3137 S.2     1  UNL1       -0.0728
      6 C         137.3159  141.6582  157.1570 C.ar    1  UNL1        0.0210
      7 C         137.5452  142.8187  156.2346 C.ar    1  UNL1       -0.0126
      8 C         138.6324  143.6694  156.8212 C.ar    1  UNL1        0.0545
      9 C         139.2765  144.9400  156.3514 C.ar    1  UNL1        0.1717
     10 N         139.0512  145.7896  155.1359 N.ar    1  UNL1       -0.2032
     11 C         139.9988  146.9506  155.1998 C.ar    1  UNL1        0.2214
     12 N         140.8098  146.8185  156.4548 N.ar    1  UNL1       -0.1372
     13 N         140.3633  145.5759  157.1665 N.ar    1  UNL1       -0.1606
     14 C         136.7343  142.9507  154.9796 C.3     1  UNL1        0.0441
     15 C         135.6941  141.9224  154.6470 C.3     1  UNL1        0.0771
     16 N         135.4649  140.7620  155.5695 N.3     1  UNL1       -0.2682
     17 C         136.2757  140.6298  156.8244 C.3     1  UNL1        0.1054
     18 C         140.6047  143.0360  160.2064 C.3     1  UNL1        0.1400
     19 C         140.0692  143.5384  161.5144 C.ar    1  UNL1        0.0281
     20 C         138.6257  143.3286  161.8643 C.ar    1  UNL1        0.0007
     21 C         138.0903  143.8310  163.1722 C.ar    1  UNL1        0.0113
     22 C         138.9984  144.5433  164.1305 C.ar    1  UNL1        0.0599
     23 CL        138.4629  145.0457  165.4384 Cl      1  UNL1       -0.0822
     24 C         140.4418  144.7531  163.7807 C.ar    1  UNL1        0.0408
     25 C         140.9772  144.2507  162.4726 C.ar    1  UNL1        0.1388
     26 F         142.4207  144.4605  162.1228 F       1  UNL1       -0.2044
     27 C         134.4247  139.7336  155.2368 C.3     1  UNL1        0.0725
     28 C         133.1479  139.6772  156.0219 C.3     1  UNL1        0.0210
     29 C         132.0493  140.6585  155.7387 C.3     1  UNL1        0.0335
     30 C         130.7724  140.6020  156.5238 C.3     1  UNL1        0.1422
     31 O         130.5941  139.5643  157.5921 O.3     1  UNL1       -0.3538
     32 C         131.6927  138.5831  157.8753 C.3     1  UNL1        0.1422
     33 C         132.9695  138.6395  157.0903 C.3     1  UNL1        0.0335
@<TRIPOS>BOND
     1     1     2    2
     2     2     3   ar
     3     3    18    1
     4    18    19    1
     5    19    20   ar
     6    20    21   ar
     7    21    22   ar
     8    22    23    1
     9    22    24   ar
    10    24    25   ar
    11    25    26    1
    12     3     4   ar
    13     4     5   ar
    14     5     6   ar
    15     6     7   ar
    16     7     8   ar
    17     8     9   ar
    18     9    10   ar
    19    10    11   ar
    20    11    12   ar
    21    12    13   ar
    22     7    14    1
    23    14    15    1
    24    15    16    1
    25    16    27    1
    26    27    28    1
    27    28    29    1
    28    29    30    1
    29    30    31    1
    30    31    32    1
    31    32    33    1
    32    16    17    1
    33    13     2   ar
    34    33    28    1
    35    25    19   ar
    36     8     4   ar
    37    13     9   ar
    38    17     6    1
@<TRIPOS>MOLECULE
*****
 33 38 0 0 0
SMALL
GASTEIGER

@<TRIPOS>ATOM
      1 O         144.4554  141.4138  161.0804 O.2     1  UNL1       -0.2443
      2 C         143.7285  142.1051  159.9652 C.ar    1  UNL1        0.3532
      3 N         142.9083  143.3284  160.2494 N.ar    1  UNL1       -0.2701
      4 C         142.1813  144.0197  159.1343 C.ar    1  UNL1        0.0965
      5 S         141.3029  145.2354  159.1105 S.2     1  UNL1       -0.0728
      6 C         140.8533  145.4548  157.6964 C.ar    1  UNL1        0.0210
      7 C         141.4537  144.3746  156.8462 C.ar    1  UNL1       -0.0126
      8 C         142.2745  143.4877  157.7349 C.ar    1  UNL1        0.0545
      9 C         143.0947  142.2643  157.4507 C.ar    1  UNL1        0.1717
     10 N         143.3715  141.5141  156.1816 N.ar    1  UNL1       -0.2032
     11 C         144.2696  140.3592  156.5125 C.ar    1  UNL1        0.2214
     12 N         144.5478  140.3956  157.9860 N.ar    1  UNL1       -0.1372
     13 N         143.8216  141.5730  158.5658 N.ar    1  UNL1       -0.1606
     14 C         141.1755  144.3382  155.3727 C.3     1  UNL1        0.0441
     15 C         140.2969  145.3819  154.7493 C.3     1  UNL1        0.0771
     16 N         139.6965  146.4621  155.5995 N.3     1  UNL1       -0.2682
     17 C         139.9746  146.4985  157.0730 C.3     1  UNL1        0.1054
     18 C         142.8151  143.8604  161.6489 C.3     1  UNL1        0.1400
     19 C         141.5243  143.7573  162.4059 C.ar    1  UNL1        0.0281
     20 C         140.5497  142.6642  162.0816 C.ar    1  UNL1        0.0007
     21 C         139.2589  142.5611  162.8387 C.ar    1  UNL1        0.0113
     22 C         138.9427  143.5514  163.9202 C.ar    1  UNL1        0.0599
     23 CL        137.6519  143.4484  164.6773 Cl      1  UNL1       -0.0822
     24 C         139.9172  144.6445  164.2445 C.ar    1  UNL1        0.0408
     25 C         141.2081  144.7475  163.4874 C.ar    1  UNL1        0.1388
     26 F         142.1826  145.8407  163.8118 F       1  UNL1       -0.2044
     27 C         138.8178  147.5058  154.9760 C.3     1  UNL1        0.0725
     28 C         139.1978  148.9543  155.0611 C.3     1  UNL1        0.0210
     29 C         140.2947  149.4943  154.1921 C.3     1  UNL1        0.0335
     30 C         140.6746  150.9429  154.2772 C.3     1  UNL1        0.1422
     31 O         139.9576  151.8515  155.2312 O.3     1  UNL1       -0.3538
     32 C         138.8607  151.3116  156.1003 C.3     1  UNL1        0.1422
     33 C         138.4808  149.8631  156.0152 C.3     1  UNL1        0.0335
@<TRIPOS>BOND
     1     1     2    2
     2     2     3   ar
     3     3    18    1
     4    18    19    1
     5    19    20   ar
     6    20    21   ar
     7    21    22   ar
     8    22    23    1
     9    22    24   ar
    10    24    25   ar
    11    25    26    1
    12     3     4   ar
    13     4     5   ar
    14     5     6   ar
    15     6     7   ar
    16     7     8   ar
    17     8     9   ar
    18     9    10   ar
    19    10    11   ar
    20    11    12   ar
    21    12    13   ar
    22     7    14    1
    23    14    15    1
    24    15    16    1
    25    16    27    1
    26    27    28    1
    27    28    29    1
    28    29    30    1
    29    30    31    1
    30    31    32    1
    31    32    33    1
    32    16    17    1
    33    13     2   ar
    34    33    28    1
    35    25    19   ar
    36     8     4   ar
    37    13     9   ar
    38    17     6    1
@<TRIPOS>MOLECULE
*****
 33 38 0 0 0
SMALL
GASTEIGER

@<TRIPOS>ATOM
      1 O         138.7201  140.3464  166.0130 O.2     1  UNL1       -0.2443
      2 C         139.1411  140.7835  164.6412 C.ar    1  UNL1        0.3532
      3 N         139.6820  142.1662  164.4277 N.ar    1  UNL1       -0.2701
      4 C         140.1030  142.6033  163.0561 C.ar    1  UNL1        0.0965
      5 S         140.6682  143.8949  162.5435 S.2     1  UNL1       -0.0728
      6 C         140.8976  143.7475  161.0685 C.ar    1  UNL1        0.0210
      7 C         140.4742  142.3649  160.6694 C.ar    1  UNL1       -0.0126
      8 C         139.9831  141.6578  161.8977 C.ar    1  UNL1        0.0545
      9 C         139.4422  140.2751  162.1113 C.ar    1  UNL1        0.1717
     10 N         139.2095  139.1318  161.1686 N.ar    1  UNL1       -0.2032
     11 C         138.6447  137.9880  161.9578 C.ar    1  UNL1        0.2214
     12 N         138.5283  138.4244  163.3881 N.ar    1  UNL1       -0.1372
     13 N         139.0212  139.8380  163.4830 N.ar    1  UNL1       -0.1606
     14 C         140.5905  141.9284  159.2390 C.3     1  UNL1        0.0441
     15 C         141.1303  142.8745  158.2078 C.3     1  UNL1        0.0771
     16 N         141.5537  144.2571  158.6069 N.3     1  UNL1       -0.2682
     17 C         141.4374  144.6936  160.0372 C.3     1  UNL1        0.1054
     18 C         139.8019  143.1118  165.5861 C.3     1  UNL1        0.1400
     19 C         140.8097  142.8508  166.6659 C.ar    1  UNL1        0.0281
     20 C         140.4006  142.9234  168.1073 C.ar    1  UNL1        0.0007
     21 C         141.4084  142.6625  169.1871 C.ar    1  UNL1        0.0113
     22 C         142.8256  142.3289  168.8256 C.ar    1  UNL1        0.0599
     23 CL        143.8334  142.0680  169.9055 Cl      1  UNL1       -0.0822
     24 C         143.2347  142.2563  167.3844 C.ar    1  UNL1        0.0408
     25 C         142.2268  142.5173  166.3045 C.ar    1  UNL1        0.1388
     26 F         142.6360  142.4447  164.8632 F       1  UNL1       -0.2044
     27 C         142.0935  145.2032  157.5755 C.3     1  UNL1        0.0725
     28 C         141.1642  145.8503  156.5920 C.3     1  UNL1        0.0210
     29 C         139.9409  146.5700  157.0775 C.3     1  UNL1        0.0335
     30 C         139.0116  147.2172  156.0939 C.3     1  UNL1        0.1422
     31 O         139.3055  147.1447  154.6247 O.3     1  UNL1       -0.3538
     32 C         140.5287  146.4250  154.1392 C.3     1  UNL1        0.1422
     33 C         141.4580  145.7779  155.1228 C.3     1  UNL1        0.0335
@<TRIPOS>BOND
     1     1     2    2
     2     2     3   ar
     3     3    18    1
     4    18    19    1
     5    19    20   ar
     6    20    21   ar
     7    21    22   ar
     8    22    23    1
     9    22    24   ar
    10    24    25   ar
    11    25    26    1
    12     3     4   ar
    13     4     5   ar
    14     5     6   ar
    15     6     7   ar
    16     7     8   ar
    17     8     9   ar
    18     9    10   ar
    19    10    11   ar
    20    11    12   ar
    21    12    13   ar
    22     7    14    1
    23    14    15    1
    24    15    16    1
    25    16    27    1
    26    27    28    1
    27    28    29    1
    28    29    30    1
    29    30    31    1
    30    31    32    1
    31    32    33    1
    32    16    17    1
    33    13     2   ar
    34    33    28    1
    35    25    19   ar
    36     8     4   ar
    37    13     9   ar
    38    17     6    1
@<TRIPOS>MOLECULE
*****
 33 38 0 0 0
SMALL
GASTEIGER

@<TRIPOS>ATOM
      1 O         141.0185  143.5121  158.1312 O.2     1  UNL1       -0.2443
      2 C         141.1183  143.2834  159.6103 C.ar    1  UNL1        0.3532
      3 N         141.7402  142.0230  160.1341 N.ar    1  UNL1       -0.2701
      4 C         141.8399  141.7943  161.6131 C.ar    1  UNL1        0.0965
      5 S         142.3976  140.6577  162.4177 S.2     1  UNL1       -0.0728
      6 C         142.2200  140.9870  163.8702 C.ar    1  UNL1        0.0210
      7 C         141.5526  142.3272  163.9635 C.ar    1  UNL1       -0.0126
      8 C         141.3177  142.8261  162.5685 C.ar    1  UNL1        0.0545
      9 C         140.6957  144.0865  162.0447 C.ar    1  UNL1        0.1717
     10 N         140.0983  145.2745  162.7388 N.ar    1  UNL1       -0.2032
     11 C         139.6293  146.2374  161.6886 C.ar    1  UNL1        0.2214
     12 N         139.9369  145.6445  160.3455 N.ar    1  UNL1       -0.1372
     13 N         140.5960  144.3152  160.5656 N.ar    1  UNL1       -0.1606
     14 C         141.2450  142.9200  165.3066 C.3     1  UNL1        0.0441
     15 C         141.6048  142.1728  166.5564 C.3     1  UNL1        0.0771
     16 N         142.2722  140.8327  166.4632 N.3     1  UNL1       -0.2682
     17 C         142.5798  140.2398  165.1202 C.3     1  UNL1        0.1054
     18 C         142.2625  140.9912  159.1786 C.3     1  UNL1        0.1400
     19 C         143.5080  141.2632  158.3883 C.ar    1  UNL1        0.0281
     20 C         144.4394  142.3607  158.8103 C.ar    1  UNL1        0.0007
     21 C         145.6849  142.6327  158.0199 C.ar    1  UNL1        0.0113
     22 C         145.9990  141.8072  156.8075 C.ar    1  UNL1        0.0599
     23 CL        147.2446  142.0792  156.0171 Cl      1  UNL1       -0.0822
     24 C         145.0677  140.7098  156.3855 C.ar    1  UNL1        0.0408
     25 C         143.8222  140.4377  157.1759 C.ar    1  UNL1        0.1388
     26 F         142.8908  139.3402  156.7539 F       1  UNL1       -0.2044
     27 C         142.6320  140.0855  167.7131 C.3     1  UNL1        0.0725
     28 C         141.9889  140.4523  169.0176 C.3     1  UNL1        0.0210
     29 C         140.6575  139.8689  169.3877 C.3     1  UNL1        0.0335
     30 C         140.0144  140.2357  170.6922 C.3     1  UNL1        0.1422
     31 O         140.7026  141.1860  171.6267 O.3     1  UNL1       -0.3538
     32 C         142.0340  141.7694  171.2566 C.3     1  UNL1        0.1422
     33 C         142.6771  141.4026  169.9522 C.3     1  UNL1        0.0335
@<TRIPOS>BOND
     1     1     2    2
     2     2     3   ar
     3     3    18    1
     4    18    19    1
     5    19    20   ar
     6    20    21   ar
     7    21    22   ar
     8    22    23    1
     9    22    24   ar
    10    24    25   ar
    11    25    26    1
    12     3     4   ar
    13     4     5   ar
    14     5     6   ar
    15     6     7   ar
    16     7     8   ar
    17     8     9   ar
    18     9    10   ar
    19    10    11   ar
    20    11    12   ar
    21    12    13   ar
    22     7    14    1
    23    14    15    1
    24    15    16    1
    25    16    27    1
    26    27    28    1
    27    28    29    1
    28    29    30    1
    29    30    31    1
    30    31    32    1
    31    32    33    1
    32    16    17    1
    33    13     2   ar
    34    33    28    1
    35    25    19   ar
    36     8     4   ar
    37    13     9   ar
    38    17     6    1
@<TRIPOS>MOLECULE
*****
 33 38 0 0 0
SMALL
GASTEIGER

@<TRIPOS>ATOM
      1 O         141.9459  144.1419  158.2952 O.2     1  UNL1       -0.2443
      2 C         141.8593  143.7984  159.7528 C.ar    1  UNL1        0.3532
      3 N         142.6191  142.6232  160.2928 N.ar    1  UNL1       -0.2701
      4 C         142.5325  142.2797  161.7503 C.ar    1  UNL1        0.0965
      5 S         143.1638  141.1887  162.5637 S.2     1  UNL1       -0.0728
      6 C         142.7075  141.3462  163.9839 C.ar    1  UNL1        0.0210
      7 C         141.7943  142.5345  164.0483 C.ar    1  UNL1       -0.0126
      8 C         141.6862  143.1114  162.6680 C.ar    1  UNL1        0.0545
      9 C         140.9264  144.2866  162.1280 C.ar    1  UNL1        0.1717
     10 N         140.0177  145.2824  162.7857 N.ar    1  UNL1       -0.2032
     11 C         139.5427  146.2414  161.7347 C.ar    1  UNL1        0.2214
     12 N         140.1578  145.8382  160.4273 N.ar    1  UNL1       -0.1372
     13 N         141.0129  144.6301  160.6704 N.ar    1  UNL1       -0.1606
     14 C         141.1792  142.9377  165.3557 C.3     1  UNL1        0.0441
     15 C         141.4773  142.1526  166.5986 C.3     1  UNL1        0.0771
     16 N         142.3905  140.9643  166.5341 N.3     1  UNL1       -0.2682
     17 C         143.0056  140.5611  165.2268 C.3     1  UNL1        0.1054
     18 C         143.4655  141.7915  159.3752 C.3     1  UNL1        0.1400
     19 C         142.8796  140.5863  158.7013 C.ar    1  UNL1        0.0281
     20 C         141.8934  140.7569  157.5840 C.ar    1  UNL1        0.0007
     21 C         141.3075  139.5517  156.9101 C.ar    1  UNL1        0.0113
     22 C         141.7078  138.1757  157.3535 C.ar    1  UNL1        0.0599
     23 CL        141.1220  136.9705  156.6796 Cl      1  UNL1       -0.0822
     24 C         142.6940  138.0051  158.4707 C.ar    1  UNL1        0.0408
     25 C         143.2799  139.2104  159.1447 C.ar    1  UNL1        0.1388
     26 F         144.2661  139.0397  160.2619 F       1  UNL1       -0.2044
     27 C         142.6886  140.1792  167.7771 C.3     1  UNL1        0.0725
     28 C         142.0023  140.5250  169.0651 C.3     1  UNL1        0.0210
     29 C         140.7133  139.8515  169.4325 C.3     1  UNL1        0.0335
     30 C         140.0269  140.1973  170.7206 C.3     1  UNL1        0.1422
     31 O         140.6296  141.2165  171.6415 O.3     1  UNL1       -0.3538
     32 C         141.9186  141.8899  171.2742 C.3     1  UNL1        0.1422
     33 C         142.6049  141.5442  169.9861 C.3     1  UNL1        0.0335
@<TRIPOS>BOND
     1     1     2    2
     2     2     3   ar
     3     3    18    1
     4    18    19    1
     5    19    20   ar
     6    20    21   ar
     7    21    22   ar
     8    22    23    1
     9    22    24   ar
    10    24    25   ar
    11    25    26    1
    12     3     4   ar
    13     4     5   ar
    14     5     6   ar
    15     6     7   ar
    16     7     8   ar
    17     8     9   ar
    18     9    10   ar
    19    10    11   ar
    20    11    12   ar
    21    12    13   ar
    22     7    14    1
    23    14    15    1
    24    15    16    1
    25    16    27    1
    26    27    28    1
    27    28    29    1
    28    29    30    1
    29    30    31    1
    30    31    32    1
    31    32    33    1
    32    16    17    1
    33    13     2   ar
    34    33    28    1
    35    25    19   ar
    36     8     4   ar
    37    13     9   ar
    38    17     6    1
@<TRIPOS>MOLECULE
*****
 33 38 0 0 0
SMALL
GASTEIGER

@<TRIPOS>ATOM
      1 O         139.1711  142.6114  158.1210 O.2     1  UNL1       -0.2443
      2 C         139.2833  142.5042  159.6130 C.ar    1  UNL1        0.3532
      3 N         139.0841  141.1790  160.2868 N.ar    1  UNL1       -0.2701
      4 C         139.1963  141.0718  161.7787 C.ar    1  UNL1        0.0965
      5 S         139.0523  139.9088  162.7152 S.2     1  UNL1       -0.0728
      6 C         139.2748  140.4081  164.1120 C.ar    1  UNL1        0.0210
      7 C         139.5564  141.8797  164.0389 C.ar    1  UNL1       -0.0126
      8 C         139.5079  142.2899  162.5969 C.ar    1  UNL1        0.0545
      9 C         139.7071  143.6151  161.9230 C.ar    1  UNL1        0.1717
     10 N         140.0223  144.9784  162.4633 N.ar    1  UNL1       -0.2032
     11 C         140.1048  145.9282  161.3053 C.ar    1  UNL1        0.2214
     12 N         139.8407  145.1519  160.0493 N.ar    1  UNL1       -0.1372
     13 N         139.5949  143.7223  160.4311 N.ar    1  UNL1       -0.1606
     14 C         139.8205  142.6560  165.2949 C.3     1  UNL1        0.0441
     15 C         139.8031  141.9609  166.6239 C.3     1  UNL1        0.0771
     16 N         139.5216  140.4894  166.6970 N.3     1  UNL1       -0.2682
     17 C         139.2574  139.7130  165.4411 C.3     1  UNL1        0.1054
     18 C         138.7725  139.9609  159.4686 C.3     1  UNL1        0.1400
     19 C         139.8751  139.2315  158.7599 C.ar    1  UNL1        0.0281
     20 C         141.0711  138.7511  159.5273 C.ar    1  UNL1        0.0007
     21 C         142.1736  138.0217  158.8186 C.ar    1  UNL1        0.0113
     22 C         142.0801  137.7725  157.3423 C.ar    1  UNL1        0.0599
     23 CL        143.1826  137.0431  156.6336 Cl      1  UNL1       -0.0822
     24 C         140.8842  138.2528  156.5749 C.ar    1  UNL1        0.0408
     25 C         139.7816  138.9823  157.2837 C.ar    1  UNL1        0.1388
     26 F         138.5857  139.4626  156.5162 F       1  UNL1       -0.2044
     27 C         139.5042  139.7942  168.0261 C.3     1  UNL1        0.0725
     28 C         140.3068  140.3411  169.1691 C.3     1  UNL1        0.0210
     29 C         139.7491  141.4463  170.0162 C.3     1  UNL1        0.0335
     30 C         140.5518  141.9932  171.1593 C.3     1  UNL1        0.1422
     31 O         141.9122  141.4350  171.4552 O.3     1  UNL1       -0.3538
     32 C         142.4699  140.3299  170.6081 C.3     1  UNL1        0.1422
     33 C         141.6673  139.7829  169.4651 C.3     1  UNL1        0.0335
@<TRIPOS>BOND
     1     1     2    2
     2     2     3   ar
     3     3    18    1
     4    18    19    1
     5    19    20   ar
     6    20    21   ar
     7    21    22   ar
     8    22    23    1
     9    22    24   ar
    10    24    25   ar
    11    25    26    1
    12     3     4   ar
    13     4     5   ar
    14     5     6   ar
    15     6     7   ar
    16     7     8   ar
    17     8     9   ar
    18     9    10   ar
    19    10    11   ar
    20    11    12   ar
    21    12    13   ar
    22     7    14    1
    23    14    15    1
    24    15    16    1
    25    16    27    1
    26    27    28    1
    27    28    29    1
    28    29    30    1
    29    30    31    1
    30    31    32    1
    31    32    33    1
    32    16    17    1
    33    13     2   ar
    34    33    28    1
    35    25    19   ar
    36     8     4   ar
    37    13     9   ar
    38    17     6    1
@<TRIPOS>MOLECULE
*****
 33 38 0 0 0
SMALL
GASTEIGER

@<TRIPOS>ATOM
      1 O         139.6848  142.5506  163.3435 O.2     1  UNL1       -0.2443
      2 C         140.3362  141.9620  162.1273 C.ar    1  UNL1        0.3532
      3 N         140.4808  140.4745  161.9997 N.ar    1  UNL1       -0.2701
      4 C         141.1322  139.8858  160.7836 C.ar    1  UNL1        0.0965
      5 S         141.4127  138.4680  160.3820 S.2     1  UNL1       -0.0728
      6 C         142.0928  138.4906  159.0454 C.ar    1  UNL1        0.0210
      7 C         142.2327  139.9225  158.6206 C.ar    1  UNL1       -0.0126
      8 C         141.6390  140.7848  159.6949 C.ar    1  UNL1        0.0545
      9 C         141.4944  142.2723  159.8225 C.ar    1  UNL1        0.1717
     10 N         141.8945  143.4008  158.9189 N.ar    1  UNL1       -0.2032
     11 C         141.4904  144.6868  159.5767 C.ar    1  UNL1        0.2214
     12 N         140.8405  144.3532  160.8868 N.ar    1  UNL1       -0.1372
     13 N         140.8430  142.8609  161.0387 N.ar    1  UNL1       -0.1606
     14 C         142.8826  140.2561  157.3105 C.3     1  UNL1        0.0441
     15 C         143.3926  139.1580  156.4252 C.3     1  UNL1        0.0771
     16 N         143.2528  137.7262  156.8499 N.3     1  UNL1       -0.2682
     17 C         142.6029  137.3925  158.1599 C.3     1  UNL1        0.1054
     18 C         139.9740  139.5755  163.0884 C.3     1  UNL1        0.1400
     19 C         140.6449  139.5708  164.4300 C.ar    1  UNL1        0.0281
     20 C         139.8764  139.9714  165.6544 C.ar    1  UNL1        0.0007
     21 C         140.5473  139.9666  166.9960 C.ar    1  UNL1        0.0113
     22 C         141.9867  139.5611  167.1132 C.ar    1  UNL1        0.0599
     23 CL        142.6576  139.5563  168.4548 Cl      1  UNL1       -0.0822
     24 C         142.7552  139.1605  165.8890 C.ar    1  UNL1        0.0408
     25 C         142.0842  139.1653  164.5473 C.ar    1  UNL1        0.1388
     26 F         142.8528  138.7646  163.3231 F       1  UNL1       -0.2044
     27 C         143.7628  136.6280  155.9644 C.3     1  UNL1        0.0725
     28 C         143.1759  135.2513  156.0632 C.3     1  UNL1        0.0210
     29 C         141.9781  134.8855  155.2377 C.3     1  UNL1        0.0335
     30 C         141.3911  133.5087  155.3366 C.3     1  UNL1        0.1422
     31 O         142.0020  132.4975  156.2609 O.3     1  UNL1       -0.3538
     32 C         143.1998  132.8632  157.0864 C.3     1  UNL1        0.1422
     33 C         143.7868  134.2400  156.9876 C.3     1  UNL1        0.0335
@<TRIPOS>BOND
     1     1     2    2
     2     2     3   ar
     3     3    18    1
     4    18    19    1
     5    19    20   ar
     6    20    21   ar
     7    21    22   ar
     8    22    23    1
     9    22    24   ar
    10    24    25   ar
    11    25    26    1
    12     3     4   ar
    13     4     5   ar
    14     5     6   ar
    15     6     7   ar
    16     7     8   ar
    17     8     9   ar
    18     9    10   ar
    19    10    11   ar
    20    11    12   ar
    21    12    13   ar
    22     7    14    1
    23    14    15    1
    24    15    16    1
    25    16    27    1
    26    27    28    1
    27    28    29    1
    28    29    30    1
    29    30    31    1
    30    31    32    1
    31    32    33    1
    32    16    17    1
    33    13     2   ar
    34    33    28    1
    35    25    19   ar
    36     8     4   ar
    37    13     9   ar
    38    17     6    1
@<TRIPOS>MOLECULE
*****
 33 38 0 0 0
SMALL
GASTEIGER

@<TRIPOS>ATOM
      1 O         143.7075  137.9131  154.6000 O.2     1  UNL1       -0.2443
      2 C         143.6243  138.5823  155.9398 C.ar    1  UNL1        0.3532
      3 N         142.7349  138.0163  157.0069 N.ar    1  UNL1       -0.2701
      4 C         142.6517  138.6855  158.3467 C.ar    1  UNL1        0.0965
      5 S         141.8685  138.3604  159.5842 S.2     1  UNL1       -0.0728
      6 C         142.1905  139.3947  160.6216 C.ar    1  UNL1        0.0210
      7 C         143.1728  140.3591  160.0255 C.ar    1  UNL1       -0.0126
      8 C         143.4578  139.9207  158.6195 C.ar    1  UNL1        0.0545
      9 C         144.3471  140.4867  157.5525 C.ar    1  UNL1        0.1717
     10 N         145.2524  141.6826  157.5304 N.ar    1  UNL1       -0.2032
     11 C         145.8951  141.7524  156.1769 C.ar    1  UNL1        0.2214
     12 N         145.3871  140.5998  155.3624 N.ar    1  UNL1       -0.1372
     13 N         144.4304  139.8175  156.2126 N.ar    1  UNL1       -0.1606
     14 C         143.6808  141.5117  160.8399 C.3     1  UNL1        0.0441
     15 C         143.2066  141.7001  162.2504 C.3     1  UNL1        0.0771
     16 N         142.2244  140.7358  162.8465 N.3     1  UNL1       -0.2682
     17 C         141.7164  139.5831  162.0322 C.3     1  UNL1        0.1054
     18 C         141.9288  136.7810  156.7341 C.3     1  UNL1        0.1400
     19 C         142.6182  135.4626  156.5432 C.ar    1  UNL1        0.0281
     20 C         143.4331  134.8741  157.6566 C.ar    1  UNL1        0.0007
     21 C         144.1225  133.5557  157.4657 C.ar    1  UNL1        0.0113
     22 C         143.9971  132.8257  156.1613 C.ar    1  UNL1        0.0599
     23 CL        144.6865  131.5073  155.9704 Cl      1  UNL1       -0.0822
     24 C         143.1823  133.4141  155.0479 C.ar    1  UNL1        0.0408
     25 C         142.4928  134.7326  155.2388 C.ar    1  UNL1        0.1388
     26 F         141.6780  135.3211  154.1253 F       1  UNL1       -0.2044
     27 C         141.7502  140.9242  164.2571 C.3     1  UNL1        0.0725
     28 C         142.3456  140.1058  165.3642 C.3     1  UNL1        0.0210
     29 C         143.3307  139.0198  165.0477 C.3     1  UNL1        0.0335
     30 C         143.9261  138.2013  166.1548 C.3     1  UNL1        0.1422
     31 O         143.5364  138.4689  167.5784 O.3     1  UNL1       -0.3538
     32 C         142.5514  139.5549  167.8948 C.3     1  UNL1        0.1422
     33 C         141.9560  140.3733  166.7878 C.3     1  UNL1        0.0335
@<TRIPOS>BOND
     1     1     2    2
     2     2     3   ar
     3     3    18    1
     4    18    19    1
     5    19    20   ar
     6    20    21   ar
     7    21    22   ar
     8    22    23    1
     9    22    24   ar
    10    24    25   ar
    11    25    26    1
    12     3     4   ar
    13     4     5   ar
    14     5     6   ar
    15     6     7   ar
    16     7     8   ar
    17     8     9   ar
    18     9    10   ar
    19    10    11   ar
    20    11    12   ar
    21    12    13   ar
    22     7    14    1
    23    14    15    1
    24    15    16    1
    25    16    27    1
    26    27    28    1
    27    28    29    1
    28    29    30    1
    29    30    31    1
    30    31    32    1
    31    32    33    1
    32    16    17    1
    33    13     2   ar
    34    33    28    1
    35    25    19   ar
    36     8     4   ar
    37    13     9   ar
    38    17     6    1
