@<TRIPOS>MOLECULE
*****
 37 42 0 0 0
SMALL
GASTEIGER

@<TRIPOS>ATOM
      1 C         138.7154  139.5317  159.8518 C.ar    1  UNL1        0.1233
      2 C         139.8291  139.0252  158.9840 C.ar    1  UNL1        0.1179
      3 N         139.4396  139.2482  157.5527 N.ar    1  UNL1       -0.2257
      4 N         138.0851  139.8926  157.5359 N.ar    1  UNL1       -0.0635
      5 N         137.6375  140.0678  158.9568 N.ar    1  UNL1       -0.1287
      6 C         138.2524  140.7092  163.6134 C.ar    1  UNL1        0.1547
      7 C         138.2829  140.7342  162.1139 C.ar    1  UNL1        0.0400
      8 C         138.6848  139.5066  161.3513 C.ar    1  UNL1        0.0241
      9 C         139.0562  138.2540  162.0882 C.ar    1  UNL1        0.0033
     10 C         139.0256  138.2290  163.5876 C.ar    1  UNL1        0.0207
     11 C         138.6237  139.4565  164.3502 C.ar    1  UNL1        0.0994
     12 N         138.5932  139.4314  165.8498 N.ar    1  UNL1       -0.2839
     13 C         137.6640  138.6160  166.6992 C.ar    1  UNL1        0.1826
     14 N         137.9830  138.8980  168.1375 N.ar    1  UNL1       -0.2280
     15 C         139.1094  139.8878  168.1770 C.ar    1  UNL1        0.0786
     16 C         139.7468  140.4493  169.4133 C.3     1  UNL1        0.0538
     17 C         139.4865  140.2175  166.7631 C.ar    1  UNL1        0.0963
     18 C         137.8517  143.2747  163.6980 C.3     1  UNL1        0.2525
     19 O         137.8505  141.9367  164.3760 O.3     1  UNL1       -0.4700
     20 C         140.2604  138.8897  156.3495 C.3     1  UNL1        0.1556
     21 C         140.8543  137.5176  156.2284 C.ar    1  UNL1        0.0022
     22 C         140.2502  136.5195  155.2855 C.ar    1  UNL1       -0.0022
     23 C         140.8442  135.1474  155.1644 C.ar    1  UNL1        0.0029
     24 C         142.0421  134.7735  155.9861 C.ar    1  UNL1        0.0391
     25 C         142.6461  135.7716  156.9289 C.ar    1  UNL1        0.0029
     26 C         142.0521  137.1437  157.0500 C.ar    1  UNL1       -0.0022
     27 C         142.6360  133.4014  155.8650 C.ar    1  UNL1        0.2036
     28 N         143.2481  132.8115  154.6292 N.ar    1  UNL1       -0.0556
     29 O         143.7125  131.4239  154.9589 O.2     1  UNL1       -0.3324
     30 C         143.3875  131.1561  156.3986 C.ar    1  UNL1        0.2601
     31 N         142.7222  132.3783  156.9586 N.ar    1  UNL1       -0.1870
     32 C         143.6769  129.8887  157.1469 C.ar    1  UNL1        0.0592
     33 C         143.0349  128.6021  156.7194 C.ar    1  UNL1        0.0254
     34 C         143.3243  127.3347  157.4677 C.ar    1  UNL1        0.0990
     35 N         144.2557  127.3539  158.6434 N.ar    1  UNL1       -0.2423
     36 C         144.8977  128.6404  159.0708 C.ar    1  UNL1        0.0990
     37 C         144.6082  129.9078  158.3225 C.ar    1  UNL1        0.0254
@<TRIPOS>BOND
     1    18    19    1
     2    19     6    1
     3     6     7   ar
     4     7     8   ar
     5     8     1    1
     6     1     2   ar
     7     2     3   ar
     8     3    20    1
     9    20    21    1
    10    21    22   ar
    11    22    23   ar
    12    23    24   ar
    13    24    27    1
    14    27    28   ar
    15    28    29   ar
    16    29    30   ar
    17    30    32    1
    18    32    33   ar
    19    33    34   ar
    20    34    35   ar
    21    35    36   ar
    22    36    37   ar
    23    30    31   ar
    24    24    25   ar
    25    25    26   ar
    26     3     4   ar
    27     4     5   ar
    28     8     9   ar
    29     9    10   ar
    30    10    11   ar
    31    11    12    1
    32    12    13   ar
    33    13    14   ar
    34    14    15   ar
    35    15    16    1
    36    15    17   ar
    37    11     6   ar
    38    17    12   ar
    39     5     1   ar
    40    26    21   ar
    41    31    27   ar
    42    37    32   ar
@<TRIPOS>MOLECULE
*****
 37 42 0 0 0
SMALL
GASTEIGER

@<TRIPOS>ATOM
      1 C         138.9987  139.4009  159.8202 C.ar    1  UNL1        0.1233
      2 C         140.1407  138.8754  159.0019 C.ar    1  UNL1        0.1179
      3 N         139.8053  139.0779  157.5540 N.ar    1  UNL1       -0.2257
      4 N         138.4559  139.7287  157.4774 N.ar    1  UNL1       -0.0635
      5 N         137.9574  139.9283  158.8780 N.ar    1  UNL1       -0.1287
      6 C         139.5990  138.3861  163.6097 C.ar    1  UNL1        0.1547
      7 C         139.6847  138.3877  162.1121 C.ar    1  UNL1        0.0400
      8 C         138.9129  139.3993  161.3178 C.ar    1  UNL1        0.0241
      9 C         138.0554  140.4093  162.0210 C.ar    1  UNL1        0.0033
     10 C         137.9697  140.4077  163.5185 C.ar    1  UNL1        0.0207
     11 C         138.7415  139.3961  164.3128 C.ar    1  UNL1        0.0994
     12 N         138.6557  139.3945  165.8104 N.ar    1  UNL1       -0.2839
     13 C         137.7503  138.5339  166.6408 C.ar    1  UNL1        0.1826
     14 N         137.9953  138.8608  168.0841 N.ar    1  UNL1       -0.2280
     15 C         139.0523  139.9235  168.1457 C.ar    1  UNL1        0.0786
     16 C         139.6041  140.5469  169.3935 C.3     1  UNL1        0.0538
     17 C         139.4604  140.2533  166.7405 C.ar    1  UNL1        0.0963
     18 C         141.7737  137.6759  164.8411 C.3     1  UNL1        0.2525
     19 O         140.3708  137.3745  164.4040 O.3     1  UNL1       -0.4700
     20 C         140.6678  138.6967  156.3875 C.3     1  UNL1        0.1556
     21 C         141.1845  137.2940  156.2635 C.ar    1  UNL1        0.0022
     22 C         142.3493  136.8475  157.0966 C.ar    1  UNL1       -0.0022
     23 C         142.8661  135.4448  156.9726 C.ar    1  UNL1        0.0029
     24 C         142.2181  134.4886  156.0156 C.ar    1  UNL1        0.0391
     25 C         141.0534  134.9352  155.1825 C.ar    1  UNL1        0.0029
     26 C         140.5367  136.3379  155.3065 C.ar    1  UNL1       -0.0022
     27 C         142.7348  133.0859  155.8916 C.ar    1  UNL1        0.2036
     28 N         143.2055  132.4281  154.6284 N.ar    1  UNL1       -0.0556
     29 O         143.6332  131.0304  154.9652 O.2     1  UNL1       -0.3324
     30 C         143.4268  130.8243  156.4366 C.ar    1  UNL1        0.2601
     31 N         142.8716  132.0947  157.0091 N.ar    1  UNL1       -0.1870
     32 C         143.7236  129.5684  157.2011 C.ar    1  UNL1        0.0592
     33 C         143.3262  128.2360  156.6381 C.ar    1  UNL1        0.0254
     34 C         143.6230  126.9800  157.4027 C.ar    1  UNL1        0.0990
     35 N         144.3171  127.0565  158.7303 N.ar    1  UNL1       -0.2423
     36 C         144.7143  128.3888  159.2933 C.ar    1  UNL1        0.0990
     37 C         144.4176  129.6448  158.5287 C.ar    1  UNL1        0.0254
@<TRIPOS>BOND
     1    18    19    1
     2    19     6    1
     3     6     7   ar
     4     7     8   ar
     5     8     1    1
     6     1     2   ar
     7     2     3   ar
     8     3    20    1
     9    20    21    1
    10    21    22   ar
    11    22    23   ar
    12    23    24   ar
    13    24    27    1
    14    27    28   ar
    15    28    29   ar
    16    29    30   ar
    17    30    32    1
    18    32    33   ar
    19    33    34   ar
    20    34    35   ar
    21    35    36   ar
    22    36    37   ar
    23    30    31   ar
    24    24    25   ar
    25    25    26   ar
    26     3     4   ar
    27     4     5   ar
    28     8     9   ar
    29     9    10   ar
    30    10    11   ar
    31    11    12    1
    32    12    13   ar
    33    13    14   ar
    34    14    15   ar
    35    15    16    1
    36    15    17   ar
    37    11     6   ar
    38    17    12   ar
    39     5     1   ar
    40    26    21   ar
    41    31    27   ar
    42    37    32   ar
@<TRIPOS>MOLECULE
*****
 37 42 0 0 0
SMALL
GASTEIGER

@<TRIPOS>ATOM
      1 C         142.9605  137.1992  157.0332 C.ar    1  UNL1        0.1233
      2 C         142.2147  137.9211  158.1160 C.ar    1  UNL1        0.1179
      3 N         142.7936  139.2995  158.2379 N.ar    1  UNL1       -0.2257
      4 N         143.8973  139.4295  157.2303 N.ar    1  UNL1       -0.0635
      5 N         144.0003  138.1315  156.4858 N.ar    1  UNL1       -0.1287
      6 C         143.0943  133.2371  156.8503 C.ar    1  UNL1        0.1547
      7 C         143.3444  134.6441  157.3058 C.ar    1  UNL1        0.0400
      8 C         142.7103  135.7921  156.5776 C.ar    1  UNL1        0.0241
      9 C         141.8262  135.5329  155.3940 C.ar    1  UNL1        0.0033
     10 C         141.5761  134.1258  154.9385 C.ar    1  UNL1        0.0207
     11 C         142.2101  132.9779  155.6666 C.ar    1  UNL1        0.0994
     12 N         141.9600  131.5708  155.2111 N.ar    1  UNL1       -0.2839
     13 C         143.0094  130.5541  154.8718 C.ar    1  UNL1        0.1826
     14 N         142.3145  129.2883  154.4659 N.ar    1  UNL1       -0.2280
     15 C         140.8355  129.5226  154.5544 C.ar    1  UNL1        0.0786
     16 C         139.7638  128.5220  154.2378 C.3     1  UNL1        0.0538
     17 C         140.6164  130.9332  155.0149 C.ar    1  UNL1        0.0963
     18 C         145.2002  132.1051  157.8670 C.3     1  UNL1        0.2525
     19 O         143.7283  132.0891  157.5785 O.3     1  UNL1       -0.4700
     20 C         142.3473  140.3615  159.1986 C.3     1  UNL1        0.1556
     21 C         142.4466  140.1255  160.6766 C.ar    1  UNL1        0.0022
     22 C         143.6935  139.5282  161.2586 C.ar    1  UNL1       -0.0022
     23 C         143.7928  139.2922  162.7366 C.ar    1  UNL1        0.0029
     24 C         142.6453  139.6535  163.6326 C.ar    1  UNL1        0.0391
     25 C         141.3985  140.2508  163.0506 C.ar    1  UNL1        0.0029
     26 C         141.2992  140.4868  161.5726 C.ar    1  UNL1       -0.0022
     27 C         142.7446  139.4175  165.1106 C.ar    1  UNL1        0.2036
     28 N         143.6409  138.4225  165.7863 N.ar    1  UNL1       -0.0556
     29 O         143.4152  138.5252  167.2657 O.2     1  UNL1       -0.3324
     30 C         142.3795  139.5836  167.5043 C.ar    1  UNL1        0.2601
     31 N         141.9651  140.1351  166.1723 N.ar    1  UNL1       -0.1870
     32 C         141.8510  140.0149  168.8402 C.ar    1  UNL1        0.0592
     33 C         140.3779  139.9594  169.1175 C.ar    1  UNL1        0.0254
     34 C         139.8494  140.3906  170.4534 C.ar    1  UNL1        0.0990
     35 N         140.7941  140.8774  171.5121 N.ar    1  UNL1       -0.2423
     36 C         142.2672  140.9329  171.2348 C.ar    1  UNL1        0.0990
     37 C         142.7956  140.5017  169.8988 C.ar    1  UNL1        0.0254
@<TRIPOS>BOND
     1    18    19    1
     2    19     6    1
     3     6     7   ar
     4     7     8   ar
     5     8     1    1
     6     1     2   ar
     7     2     3   ar
     8     3    20    1
     9    20    21    1
    10    21    22   ar
    11    22    23   ar
    12    23    24   ar
    13    24    27    1
    14    27    28   ar
    15    28    29   ar
    16    29    30   ar
    17    30    32    1
    18    32    33   ar
    19    33    34   ar
    20    34    35   ar
    21    35    36   ar
    22    36    37   ar
    23    30    31   ar
    24    24    25   ar
    25    25    26   ar
    26     3     4   ar
    27     4     5   ar
    28     8     9   ar
    29     9    10   ar
    30    10    11   ar
    31    11    12    1
    32    12    13   ar
    33    13    14   ar
    34    14    15   ar
    35    15    16    1
    36    15    17   ar
    37    11     6   ar
    38    17    12   ar
    39     5     1   ar
    40    26    21   ar
    41    31    27   ar
    42    37    32   ar
@<TRIPOS>MOLECULE
*****
 37 42 0 0 0
SMALL
GASTEIGER

@<TRIPOS>ATOM
      1 C         138.3611  142.2265  157.2603 C.ar    1  UNL1        0.1233
      2 C         139.3133  141.4055  158.0785 C.ar    1  UNL1        0.1179
      3 N         138.5877  140.1762  158.5392 N.ar    1  UNL1       -0.2257
      4 N         137.1870  140.2374  158.0058 N.ar    1  UNL1       -0.0635
      5 N         137.0470  141.5045  157.2153 N.ar    1  UNL1       -0.1287
      6 C         140.2882  145.5315  156.2052 C.ar    1  UNL1        0.1547
      7 C         139.9803  144.2191  156.8630 C.ar    1  UNL1        0.0400
      8 C         138.6690  143.5390  156.6025 C.ar    1  UNL1        0.0241
      9 C         137.6656  144.1713  155.6842 C.ar    1  UNL1        0.0033
     10 C         137.9735  145.4837  155.0265 C.ar    1  UNL1        0.0207
     11 C         139.2848  146.1638  155.2870 C.ar    1  UNL1        0.0994
     12 N         139.5927  147.4763  154.6291 N.ar    1  UNL1       -0.2839
     13 C         140.4908  147.6799  153.4451 C.ar    1  UNL1        0.1826
     14 N         140.5096  149.1451  153.1241 N.ar    1  UNL1       -0.2280
     15 C         139.6231  149.8470  154.1098 C.ar    1  UNL1        0.0786
     16 C         139.3510  151.3213  154.1569 C.3     1  UNL1        0.0538
     17 C         139.0564  148.8156  155.0399 C.ar    1  UNL1        0.0963
     18 C         142.2960  146.0195  157.7802 C.3     1  UNL1        0.2525
     19 O         141.5996  146.2116  156.4657 O.3     1  UNL1       -0.4700
     20 C         139.1618  139.0785  159.3849 C.3     1  UNL1        0.1556
     21 C         139.1270  139.1876  160.8805 C.ar    1  UNL1        0.0022
     22 C         139.4134  140.5025  161.5434 C.ar    1  UNL1       -0.0022
     23 C         139.3785  140.6116  163.0391 C.ar    1  UNL1        0.0029
     24 C         139.0573  139.4060  163.8718 C.ar    1  UNL1        0.0391
     25 C         138.7710  138.0913  163.2089 C.ar    1  UNL1        0.0029
     26 C         138.8059  137.9821  161.7133 C.ar    1  UNL1       -0.0022
     27 C         139.0225  139.5152  165.3674 C.ar    1  UNL1        0.2036
     28 N         138.1499  138.7164  166.2896 N.ar    1  UNL1       -0.0556
     29 O         138.4422  139.1499  167.6956 O.2     1  UNL1       -0.3324
     30 C         139.4956  140.2165  167.6423 C.ar    1  UNL1        0.2601
     31 N         139.8542  140.4422  166.2034 N.ar    1  UNL1       -0.1870
     32 C         140.0865  140.9317  168.8209 C.ar    1  UNL1        0.0592
     33 C         140.4076  142.3940  168.7270 C.ar    1  UNL1        0.0254
     34 C         140.9986  143.1093  169.9056 C.ar    1  UNL1        0.0990
     35 N         141.2684  142.3623  171.1782 N.ar    1  UNL1       -0.2423
     36 C         140.9473  140.9001  171.2720 C.ar    1  UNL1        0.0990
     37 C         140.3564  140.1848  170.0934 C.ar    1  UNL1        0.0254
@<TRIPOS>BOND
     1    18    19    1
     2    19     6    1
     3     6     7   ar
     4     7     8   ar
     5     8     1    1
     6     1     2   ar
     7     2     3   ar
     8     3    20    1
     9    20    21    1
    10    21    22   ar
    11    22    23   ar
    12    23    24   ar
    13    24    27    1
    14    27    28   ar
    15    28    29   ar
    16    29    30   ar
    17    30    32    1
    18    32    33   ar
    19    33    34   ar
    20    34    35   ar
    21    35    36   ar
    22    36    37   ar
    23    30    31   ar
    24    24    25   ar
    25    25    26   ar
    26     3     4   ar
    27     4     5   ar
    28     8     9   ar
    29     9    10   ar
    30    10    11   ar
    31    11    12    1
    32    12    13   ar
    33    13    14   ar
    34    14    15   ar
    35    15    16    1
    36    15    17   ar
    37    11     6   ar
    38    17    12   ar
    39     5     1   ar
    40    26    21   ar
    41    31    27   ar
    42    37    32   ar
@<TRIPOS>MOLECULE
*****
 37 42 0 0 0
SMALL
GASTEIGER

@<TRIPOS>ATOM
      1 C         143.3696  139.0145  159.6574 C.ar    1  UNL1        0.1233
      2 C         142.5529  138.1697  158.7251 C.ar    1  UNL1        0.1179
      3 N         142.9542  138.5093  157.3202 N.ar    1  UNL1       -0.2257
      4 N         144.0190  139.5639  157.3843 N.ar    1  UNL1       -0.0635
      5 N         144.2757  139.8761  158.8288 N.ar    1  UNL1       -0.1287
      6 C         142.2077  138.1186  163.3449 C.ar    1  UNL1        0.1547
      7 C         142.2838  138.1330  161.8469 C.ar    1  UNL1        0.0400
      8 C         143.2936  139.0002  161.1555 C.ar    1  UNL1        0.0241
      9 C         144.2275  139.8530  161.9620 C.ar    1  UNL1        0.0033
     10 C         144.1515  139.8386  163.4600 C.ar    1  UNL1        0.0207
     11 C         143.1416  138.9714  164.1514 C.ar    1  UNL1        0.0994
     12 N         143.0656  138.9571  165.6495 N.ar    1  UNL1       -0.2839
     13 C         143.8184  138.0346  166.5617 C.ar    1  UNL1        0.1826
     14 N         143.4416  138.3701  167.9743 N.ar    1  UNL1       -0.2280
     15 C         142.4558  139.5001  167.9351 C.ar    1  UNL1        0.0786
     16 C         141.8149  140.1527  169.1239 C.3     1  UNL1        0.0538
     17 C         142.2234  139.8629  166.4983 C.ar    1  UNL1        0.0963
     18 C         139.7519  137.6501  164.0516 C.3     1  UNL1        0.2525
     19 O         141.1979  137.2514  164.0364 O.3     1  UNL1       -0.4700
     20 C         142.3898  137.9010  156.0706 C.3     1  UNL1        0.1556
     21 C         142.2553  136.4114  155.9561 C.ar    1  UNL1        0.0022
     22 C         143.1836  135.5137  156.7195 C.ar    1  UNL1       -0.0022
     23 C         143.0490  134.0241  156.6050 C.ar    1  UNL1        0.0029
     24 C         141.9863  133.4323  155.7273 C.ar    1  UNL1        0.0391
     25 C         141.0582  134.3300  154.9640 C.ar    1  UNL1        0.0029
     26 C         141.1927  135.8195  155.0784 C.ar    1  UNL1       -0.0022
     27 C         141.8518  131.9427  155.6128 C.ar    1  UNL1        0.2036
     28 N         142.8266  130.9270  156.1306 N.ar    1  UNL1       -0.0556
     29 O         142.2960  129.5639  155.7982 O.2     1  UNL1       -0.3324
     30 C         140.9934  129.7371  155.0750 C.ar    1  UNL1        0.2601
     31 N         140.7189  131.2073  154.9604 N.ar    1  UNL1       -0.1870
     32 C         140.1189  128.6339  154.5573 C.ar    1  UNL1        0.0592
     33 C         139.9301  128.4572  153.0797 C.ar    1  UNL1        0.0254
     34 C         139.0556  127.3540  152.5619 C.ar    1  UNL1        0.0990
     35 N         138.3698  126.4274  153.5218 N.ar    1  UNL1       -0.2423
     36 C         138.5585  126.6041  154.9993 C.ar    1  UNL1        0.0990
     37 C         139.4331  127.7074  155.5170 C.ar    1  UNL1        0.0254
@<TRIPOS>BOND
     1    18    19    1
     2    19     6    1
     3     6     7   ar
     4     7     8   ar
     5     8     1    1
     6     1     2   ar
     7     2     3   ar
     8     3    20    1
     9    20    21    1
    10    21    22   ar
    11    22    23   ar
    12    23    24   ar
    13    24    27    1
    14    27    28   ar
    15    28    29   ar
    16    29    30   ar
    17    30    32    1
    18    32    33   ar
    19    33    34   ar
    20    34    35   ar
    21    35    36   ar
    22    36    37   ar
    23    30    31   ar
    24    24    25   ar
    25    25    26   ar
    26     3     4   ar
    27     4     5   ar
    28     8     9   ar
    29     9    10   ar
    30    10    11   ar
    31    11    12    1
    32    12    13   ar
    33    13    14   ar
    34    14    15   ar
    35    15    16    1
    36    15    17   ar
    37    11     6   ar
    38    17    12   ar
    39     5     1   ar
    40    26    21   ar
    41    31    27   ar
    42    37    32   ar
@<TRIPOS>MOLECULE
*****
 37 42 0 0 0
SMALL
GASTEIGER

@<TRIPOS>ATOM
      1 C         140.1807  141.6144  157.5978 C.ar    1  UNL1        0.1233
      2 C         139.3665  140.8684  158.6130 C.ar    1  UNL1        0.1179
      3 N         139.9196  139.4782  158.7200 N.ar    1  UNL1       -0.2257
      4 N         141.0758  139.3650  157.7710 N.ar    1  UNL1       -0.0635
      5 N         141.2371  140.6852  157.0774 N.ar    1  UNL1       -0.1287
      6 C         138.7012  144.8049  155.7589 C.ar    1  UNL1        0.1547
      7 C         138.9072  143.3800  156.1798 C.ar    1  UNL1        0.0400
      8 C         139.9747  143.0393  157.1769 C.ar    1  UNL1        0.0241
      9 C         140.8363  144.1236  157.7531 C.ar    1  UNL1        0.0033
     10 C         140.6303  145.5485  157.3322 C.ar    1  UNL1        0.0207
     11 C         139.5627  145.8891  156.3351 C.ar    1  UNL1        0.0994
     12 N         139.3567  147.3141  155.9141 N.ar    1  UNL1       -0.2839
     13 C         138.6699  148.3797  156.7157 C.ar    1  UNL1        0.1826
     14 N         138.6901  149.6478  155.9147 N.ar    1  UNL1       -0.2280
     15 C         139.3895  149.3658  154.6180 C.ar    1  UNL1        0.0786
     16 C         139.6340  150.3529  153.5153 C.3     1  UNL1        0.0538
     17 C         139.8015  147.9235  154.6177 C.ar    1  UNL1        0.0963
     18 C         136.8495  144.0517  154.0993 C.3     1  UNL1        0.2525
     19 O         137.6336  145.1455  154.7617 O.3     1  UNL1       -0.4700
     20 C         139.4068  138.3920  159.6184 C.3     1  UNL1        0.1556
     21 C         139.3274  138.6183  161.0991 C.ar    1  UNL1        0.0022
     22 C         140.4202  138.1140  161.9945 C.ar    1  UNL1       -0.0022
     23 C         140.3408  138.3403  163.4752 C.ar    1  UNL1        0.0029
     24 C         139.1687  139.0709  164.0605 C.ar    1  UNL1        0.0391
     25 C         138.0760  139.5751  163.1651 C.ar    1  UNL1        0.0029
     26 C         138.1554  139.3488  161.6844 C.ar    1  UNL1       -0.0022
     27 C         139.0893  139.2972  165.5412 C.ar    1  UNL1        0.2036
     28 N         138.1038  138.6643  166.4783 N.ar    1  UNL1       -0.0556
     29 O         138.3870  139.1722  167.8610 O.2     1  UNL1       -0.3324
     30 C         139.5475  140.1189  167.7785 C.ar    1  UNL1        0.2601
     31 N         139.9816  140.1961  166.3448 N.ar    1  UNL1       -0.1870
     32 C         140.1655  140.8584  168.9279 C.ar    1  UNL1        0.0592
     33 C         140.2963  142.3519  168.8754 C.ar    1  UNL1        0.0254
     34 C         140.9143  143.0914  170.0248 C.ar    1  UNL1        0.0990
     35 N         141.4014  142.3376  171.2268 N.ar    1  UNL1       -0.2423
     36 C         141.2706  140.8443  171.2792 C.ar    1  UNL1        0.0990
     37 C         140.6526  140.1047  170.1298 C.ar    1  UNL1        0.0254
@<TRIPOS>BOND
     1    18    19    1
     2    19     6    1
     3     6     7   ar
     4     7     8   ar
     5     8     1    1
     6     1     2   ar
     7     2     3   ar
     8     3    20    1
     9    20    21    1
    10    21    22   ar
    11    22    23   ar
    12    23    24   ar
    13    24    27    1
    14    27    28   ar
    15    28    29   ar
    16    29    30   ar
    17    30    32    1
    18    32    33   ar
    19    33    34   ar
    20    34    35   ar
    21    35    36   ar
    22    36    37   ar
    23    30    31   ar
    24    24    25   ar
    25    25    26   ar
    26     3     4   ar
    27     4     5   ar
    28     8     9   ar
    29     9    10   ar
    30    10    11   ar
    31    11    12    1
    32    12    13   ar
    33    13    14   ar
    34    14    15   ar
    35    15    16    1
    36    15    17   ar
    37    11     6   ar
    38    17    12   ar
    39     5     1   ar
    40    26    21   ar
    41    31    27   ar
    42    37    32   ar
@<TRIPOS>MOLECULE
*****
 37 42 0 0 0
SMALL
GASTEIGER

@<TRIPOS>ATOM
      1 C         142.4194  140.8786  157.3390 C.ar    1  UNL1        0.1233
      2 C         141.9785  140.0668  158.5207 C.ar    1  UNL1        0.1179
      3 N         142.7948  138.8087  158.5493 N.ar    1  UNL1       -0.2257
      4 N         143.7403  138.8430  157.3852 N.ar    1  UNL1       -0.0635
      5 N         143.5082  140.1223  156.6372 N.ar    1  UNL1       -0.1287
      6 C         139.8638  143.6838  156.1771 C.ar    1  UNL1        0.1547
      7 C         140.4149  142.3499  156.5854 C.ar    1  UNL1        0.0400
      8 C         141.8682  142.2127  156.9306 C.ar    1  UNL1        0.0241
      9 C         142.7703  143.4094  156.8674 C.ar    1  UNL1        0.0033
     10 C         142.2192  144.7433  156.4590 C.ar    1  UNL1        0.0207
     11 C         140.7659  144.8805  156.1139 C.ar    1  UNL1        0.0994
     12 N         140.2147  146.2145  155.7055 N.ar    1  UNL1       -0.2839
     13 C         139.2345  147.0397  156.4854 C.ar    1  UNL1        0.1826
     14 N         138.9610  148.2927  155.7074 N.ar    1  UNL1       -0.2280
     15 C         139.7722  148.2419  154.4467 C.ar    1  UNL1        0.0786
     16 C         139.8031  149.2912  153.3753 C.3     1  UNL1        0.0538
     17 C         140.5470  146.9575  154.4455 C.ar    1  UNL1        0.0963
     18 C         137.4276  142.7896  156.3010 C.3     1  UNL1        0.2525
     19 O         138.4105  143.8210  155.8320 O.3     1  UNL1       -0.4700
     20 C         142.6850  137.7094  159.5639 C.3     1  UNL1        0.1556
     21 C         142.7334  138.0323  161.0279 C.ar    1  UNL1        0.0022
     22 C         141.5455  137.7468  161.8985 C.ar    1  UNL1       -0.0022
     23 C         141.5939  138.0697  163.3625 C.ar    1  UNL1        0.0029
     24 C         142.8299  138.6781  163.9560 C.ar    1  UNL1        0.0391
     25 C         144.0176  138.9636  163.0855 C.ar    1  UNL1        0.0029
     26 C         143.9692  138.6406  161.6214 C.ar    1  UNL1       -0.0022
     27 C         142.8782  139.0010  165.4200 C.ar    1  UNL1        0.2036
     28 N         143.5094  138.1584  166.4884 N.ar    1  UNL1       -0.0556
     29 O         143.3251  138.8599  167.8014 O.2     1  UNL1       -0.3324
     30 C         142.5800  140.1362  167.5445 C.ar    1  UNL1        0.2601
     31 N         142.3038  140.2234  166.0727 N.ar    1  UNL1       -0.1870
     32 C         142.1811  141.1476  168.5779 C.ar    1  UNL1        0.0592
     33 C         140.7324  141.3468  168.9124 C.ar    1  UNL1        0.0254
     34 C         140.3336  142.3583  169.9458 C.ar    1  UNL1        0.0990
     35 N         141.3833  143.1705  170.6447 N.ar    1  UNL1       -0.2423
     36 C         142.8319  142.9712  170.3101 C.ar    1  UNL1        0.0990
     37 C         143.2308  141.9598  169.2768 C.ar    1  UNL1        0.0254
@<TRIPOS>BOND
     1    18    19    1
     2    19     6    1
     3     6     7   ar
     4     7     8   ar
     5     8     1    1
     6     1     2   ar
     7     2     3   ar
     8     3    20    1
     9    20    21    1
    10    21    22   ar
    11    22    23   ar
    12    23    24   ar
    13    24    27    1
    14    27    28   ar
    15    28    29   ar
    16    29    30   ar
    17    30    32    1
    18    32    33   ar
    19    33    34   ar
    20    34    35   ar
    21    35    36   ar
    22    36    37   ar
    23    30    31   ar
    24    24    25   ar
    25    25    26   ar
    26     3     4   ar
    27     4     5   ar
    28     8     9   ar
    29     9    10   ar
    30    10    11   ar
    31    11    12    1
    32    12    13   ar
    33    13    14   ar
    34    14    15   ar
    35    15    16    1
    36    15    17   ar
    37    11     6   ar
    38    17    12   ar
    39     5     1   ar
    40    26    21   ar
    41    31    27   ar
    42    37    32   ar
@<TRIPOS>MOLECULE
*****
 37 42 0 0 0
SMALL
GASTEIGER

@<TRIPOS>ATOM
      1 C         140.3227  140.7096  157.8584 C.ar    1  UNL1        0.1233
      2 C         141.4855  140.1851  158.6476 C.ar    1  UNL1        0.1179
      3 N         141.2155  138.7452  158.9696 N.ar    1  UNL1       -0.2257
      4 N         139.8857  138.3797  158.3795 N.ar    1  UNL1       -0.0635
      5 N         139.3340  139.5938  157.6927 N.ar    1  UNL1       -0.1287
      6 C         140.3156  144.6745  157.6852 C.ar    1  UNL1        0.1547
      7 C         140.4637  143.2792  158.2155 C.ar    1  UNL1        0.0400
      8 C         140.1746  142.1049  157.3281 C.ar    1  UNL1        0.0241
      9 C         139.7374  142.3259  155.9103 C.ar    1  UNL1        0.0033
     10 C         139.5893  143.7212  155.3800 C.ar    1  UNL1        0.0207
     11 C         139.8784  144.8954  156.2674 C.ar    1  UNL1        0.0994
     12 N         139.7303  146.2908  155.7371 N.ar    1  UNL1       -0.2839
     13 C         140.3622  146.8312  154.4886 C.ar    1  UNL1        0.1826
     14 N         139.9467  148.2650  154.3420 N.ar    1  UNL1       -0.2280
     15 C         139.0579  148.6108  155.4999 C.ar    1  UNL1        0.0786
     16 C         138.4157  149.9428  155.7514 C.3     1  UNL1        0.0538
     17 C         138.9242  147.3906  156.3620 C.ar    1  UNL1        0.0963
     18 C         140.4288  145.7280  160.0573 C.3     1  UNL1        0.2525
     19 O         140.6046  145.8487  158.5726 O.3     1  UNL1       -0.4700
     20 C         142.1169  137.8312  159.7456 C.3     1  UNL1        0.1556
     21 C         142.2982  138.0318  161.2210 C.ar    1  UNL1        0.0022
     22 C         141.1919  137.6723  162.1683 C.ar    1  UNL1       -0.0022
     23 C         141.3733  137.8729  163.6437 C.ar    1  UNL1        0.0029
     24 C         142.6607  138.4328  164.1719 C.ar    1  UNL1        0.0391
     25 C         143.7669  138.7921  163.2247 C.ar    1  UNL1        0.0029
     26 C         143.5855  138.5916  161.7493 C.ar    1  UNL1       -0.0022
     27 C         142.8420  138.6333  165.6473 C.ar    1  UNL1        0.2036
     28 N         143.7085  137.8057  166.5497 N.ar    1  UNL1       -0.0556
     29 O         143.5907  138.3576  167.9395 O.2     1  UNL1       -0.3324
     30 C         142.6514  139.5262  167.8961 C.ar    1  UNL1        0.2601
     31 N         142.1887  139.6966  166.4795 N.ar    1  UNL1       -0.1870
     32 C         142.2459  140.3754  169.0643 C.ar    1  UNL1        0.0592
     33 C         142.9892  141.6436  169.3634 C.ar    1  UNL1        0.0254
     34 C         142.5837  142.4928  170.5315 C.ar    1  UNL1        0.0990
     35 N         141.4351  142.0738  171.4005 N.ar    1  UNL1       -0.2423
     36 C         140.6919  140.8057  171.1014 C.ar    1  UNL1        0.0990
     37 C         141.0973  139.9565  169.9332 C.ar    1  UNL1        0.0254
@<TRIPOS>BOND
     1    18    19    1
     2    19     6    1
     3     6     7   ar
     4     7     8   ar
     5     8     1    1
     6     1     2   ar
     7     2     3   ar
     8     3    20    1
     9    20    21    1
    10    21    22   ar
    11    22    23   ar
    12    23    24   ar
    13    24    27    1
    14    27    28   ar
    15    28    29   ar
    16    29    30   ar
    17    30    32    1
    18    32    33   ar
    19    33    34   ar
    20    34    35   ar
    21    35    36   ar
    22    36    37   ar
    23    30    31   ar
    24    24    25   ar
    25    25    26   ar
    26     3     4   ar
    27     4     5   ar
    28     8     9   ar
    29     9    10   ar
    30    10    11   ar
    31    11    12    1
    32    12    13   ar
    33    13    14   ar
    34    14    15   ar
    35    15    16    1
    36    15    17   ar
    37    11     6   ar
    38    17    12   ar
    39     5     1   ar
    40    26    21   ar
    41    31    27   ar
    42    37    32   ar
@<TRIPOS>MOLECULE
*****
 37 42 0 0 0
SMALL
GASTEIGER

@<TRIPOS>ATOM
      1 C         142.8479  139.6059  157.8142 C.ar    1  UNL1        0.1233
      2 C         141.4953  140.0552  158.2815 C.ar    1  UNL1        0.1179
      3 N         140.8838  138.9379  159.0737 N.ar    1  UNL1       -0.2257
      4 N         141.8585  137.7979  159.0960 N.ar    1  UNL1       -0.0635
      5 N         143.0724  138.2108  158.3176 N.ar    1  UNL1       -0.1287
      6 C         144.8262  141.0177  154.6769 C.ar    1  UNL1        0.1547
      7 C         143.8666  140.2133  155.5026 C.ar    1  UNL1        0.0400
      8 C         143.8077  140.4103  156.9885 C.ar    1  UNL1        0.0241
      9 C         144.7085  141.4117  157.6485 C.ar    1  UNL1        0.0033
     10 C         145.6682  142.2161  156.8228 C.ar    1  UNL1        0.0207
     11 C         145.7270  142.0191  155.3370 C.ar    1  UNL1        0.0994
     12 N         146.6868  142.8236  154.5112 N.ar    1  UNL1       -0.2839
     13 C         146.3626  144.0772  153.7541 C.ar    1  UNL1        0.1826
     14 N         147.6147  144.5440  153.0726 N.ar    1  UNL1       -0.2280
     15 C         148.7127  143.5788  153.4085 C.ar    1  UNL1        0.0786
     16 C         150.1345  143.6623  152.9379 C.3     1  UNL1        0.0538
     17 C         148.1392  142.5156  154.2976 C.ar    1  UNL1        0.0963
     18 C         143.7683  140.1122  152.4835 C.3     1  UNL1        0.2525
     19 O         144.8851  140.8208  153.1910 O.3     1  UNL1       -0.4700
     20 C         139.5344  138.9571  159.7287 C.3     1  UNL1        0.1556
     21 C         139.4264  139.0657  161.2208 C.ar    1  UNL1        0.0022
     22 C         139.5326  137.8351  162.0720 C.ar    1  UNL1       -0.0022
     23 C         139.4246  137.9437  163.5641 C.ar    1  UNL1        0.0029
     24 C         139.2105  139.2828  164.2051 C.ar    1  UNL1        0.0391
     25 C         139.1044  140.5134  163.3540 C.ar    1  UNL1        0.0029
     26 C         139.2123  140.4047  161.8618 C.ar    1  UNL1       -0.0022
     27 C         139.1025  139.3915  165.6973 C.ar    1  UNL1        0.2036
     28 N         138.0579  138.7414  166.5554 N.ar    1  UNL1       -0.0556
     29 O         138.3300  139.1175  167.9817 O.2     1  UNL1       -0.3324
     30 C         139.5428  139.9999  168.0053 C.ar    1  UNL1        0.2601
     31 N         140.0202  140.1692  166.5934 N.ar    1  UNL1       -0.1870
     32 C         140.1683  140.6065  169.2263 C.ar    1  UNL1        0.0592
     33 C         139.5714  141.8372  169.8420 C.ar    1  UNL1        0.0254
     34 C         140.1969  142.4438  171.0630 C.ar    1  UNL1        0.0990
     35 N         141.4193  141.8196  171.6682 N.ar    1  UNL1       -0.2423
     36 C         142.0161  140.5889  171.0525 C.ar    1  UNL1        0.0990
     37 C         141.3906  139.9823  169.8315 C.ar    1  UNL1        0.0254
@<TRIPOS>BOND
     1    18    19    1
     2    19     6    1
     3     6     7   ar
     4     7     8   ar
     5     8     1    1
     6     1     2   ar
     7     2     3   ar
     8     3    20    1
     9    20    21    1
    10    21    22   ar
    11    22    23   ar
    12    23    24   ar
    13    24    27    1
    14    27    28   ar
    15    28    29   ar
    16    29    30   ar
    17    30    32    1
    18    32    33   ar
    19    33    34   ar
    20    34    35   ar
    21    35    36   ar
    22    36    37   ar
    23    30    31   ar
    24    24    25   ar
    25    25    26   ar
    26     3     4   ar
    27     4     5   ar
    28     8     9   ar
    29     9    10   ar
    30    10    11   ar
    31    11    12    1
    32    12    13   ar
    33    13    14   ar
    34    14    15   ar
    35    15    16    1
    36    15    17   ar
    37    11     6   ar
    38    17    12   ar
    39     5     1   ar
    40    26    21   ar
    41    31    27   ar
    42    37    32   ar
