@<TRIPOS>MOLECULE
*****
 33 36 0 0 0
SMALL
GASTEIGER

@<TRIPOS>ATOM
      1 N         141.4403  144.1211  161.5876 N.am    1  UNL1       -0.2806
      2 C         142.0949  143.6739  160.3142 C.2     1  UNL1        0.2495
      3 O         143.0585  142.5244  160.3297 O.2     1  UNL1       -0.2698
      4 H         140.8079  144.8756  161.5774 H       1  UNL1        0.1552
      5 C         141.2425  141.5312  164.5881 C.ar    1  UNL1        0.0144
      6 C         140.9334  142.2334  163.2992 C.ar    1  UNL1        0.0155
      7 C         141.7494  143.4189  162.8766 C.ar    1  UNL1        0.0465
      8 C         142.8745  143.9022  163.7429 C.ar    1  UNL1       -0.0087
      9 C         143.6906  145.0878  163.3202 C.3     1  UNL1        0.0323
     10 C         143.1837  143.2000  165.0318 C.ar    1  UNL1       -0.0072
     11 C         142.3676  142.0145  165.4544 C.ar    1  UNL1       -0.0206
     12 C         142.6767  141.3122  166.7433 C.3     1  UNL1        0.0311
     13 C         137.6471  138.5146  167.0077 C.3     1  UNL1        0.0716
     14 C         138.7739  138.9591  166.1229 C.ar    1  UNL1        0.1175
     15 N         139.5677  138.0834  165.1993 N.ar    1  UNL1       -0.2296
     16 C         140.5891  138.9403  164.5119 C.ar    1  UNL1        0.1171
     17 C         140.4265  140.3456  165.0107 C.ar    1  UNL1        0.0766
     18 N         139.3046  140.3572  166.0063 N.ar    1  UNL1       -0.3407
     19 H         138.9746  141.1442  166.4971 H       1  UNL1        0.1671
     20 C         141.7858  144.3761  159.0253 C.ar    1  UNL1        0.0539
     21 C         142.6299  144.1220  157.8116 C.ar    1  UNL1        0.0076
     22 C         142.3208  144.8242  156.5226 C.ar    1  UNL1        0.0371
     23 C         141.1677  145.7805  156.4474 C.ar    1  UNL1        0.1391
     24 C         140.3236  146.0346  157.6610 C.ar    1  UNL1        0.0371
     25 C         140.6326  145.3325  158.9499 C.ar    1  UNL1        0.0076
     26 O         140.8586  146.4827  155.1584 O.3     1  UNL1       -0.4690
     27 C         139.4898  147.0488  154.9222 C.3     1  UNL1        0.2508
     28 C         139.2904  148.5348  154.8764 C.ar    1  UNL1        0.1026
     29 C         139.7915  149.3229  153.7026 C.ar    1  UNL1        0.0185
     30 C         139.5922  150.8089  153.6567 C.ar    1  UNL1        0.0029
     31 C         138.8916  151.5068  154.7846 C.ar    1  UNL1        0.0207
     32 C         138.3905  150.7187  155.9584 C.ar    1  UNL1        0.0986
     33 N         138.5898  149.2327  156.0043 N.ar    1  UNL1       -0.2445
@<TRIPOS>BOND
     1    13    14    1
     2    14    15   ar
     3    15    16   ar
     4    16    17   ar
     5    17     5    1
     6     5     6   ar
     7     6     7   ar
     8     7     1    1
     9     1     2   am
    10     2     3    2
    11     2    20    1
    12    20    21   ar
    13    21    22   ar
    14    22    23   ar
    15    23    26    1
    16    26    27    1
    17    27    28    1
    18    28    29   ar
    19    29    30   ar
    20    30    31   ar
    21    31    32   ar
    22    32    33   ar
    23    23    24   ar
    24    24    25   ar
    25     7     8   ar
    26     8     9    1
    27     8    10   ar
    28    10    11   ar
    29    11    12    1
    30    17    18   ar
    31    18    14   ar
    32    11     5   ar
    33    25    20   ar
    34    33    28   ar
    35     1     4    1
    36    18    19    1
@<TRIPOS>MOLECULE
*****
 33 36 0 0 0
SMALL
GASTEIGER

@<TRIPOS>ATOM
      1 N         141.0743  144.0588  159.2498 N.am    1  UNL1       -0.2806
      2 C         140.5984  144.3917  160.6328 C.2     1  UNL1        0.2495
      3 O         139.2625  145.0452  160.8292 O.2     1  UNL1       -0.2698
      4 H         141.9510  143.6299  159.1208 H       1  UNL1        0.1552
      5 C         139.3652  146.0818  156.2941 C.ar    1  UNL1        0.0144
      6 C         140.2251  145.7614  157.4805 C.ar    1  UNL1        0.0155
      7 C         140.2143  144.3792  158.0632 C.ar    1  UNL1        0.0465
      8 C         139.3435  143.3175  157.4594 C.ar    1  UNL1       -0.0087
      9 C         139.3328  141.9354  158.0422 C.3     1  UNL1        0.0323
     10 C         138.4836  143.6380  156.2730 C.ar    1  UNL1       -0.0072
     11 C         138.4944  145.0201  155.6903 C.ar    1  UNL1       -0.0206
     12 C         137.6344  145.3406  154.5038 C.3     1  UNL1        0.0311
     13 C         138.4828  151.2391  155.5832 C.3     1  UNL1        0.0716
     14 C         138.9704  149.8345  155.3846 C.ar    1  UNL1        0.1175
     15 N         139.8147  149.3472  154.2445 N.ar    1  UNL1       -0.2296
     16 C         140.0654  147.8822  154.4465 C.ar    1  UNL1        0.1171
     17 C         139.3759  147.4640  155.7113 C.ar    1  UNL1        0.0766
     18 N         138.6992  148.6706  156.2911 N.ar    1  UNL1       -0.3407
     19 H         138.1700  148.6944  157.1209 H       1  UNL1        0.1671
     20 C         141.4583  144.0713  161.8193 C.ar    1  UNL1        0.0539
     21 C         142.4847  142.9811  161.7291 C.ar    1  UNL1        0.0076
     22 C         143.3446  142.6607  162.9157 C.ar    1  UNL1        0.0371
     23 C         143.1782  143.4304  164.1923 C.ar    1  UNL1        0.1391
     24 C         142.1518  144.5206  164.2825 C.ar    1  UNL1        0.0371
     25 C         141.2919  144.8410  163.0960 C.ar    1  UNL1        0.0076
     26 O         144.0381  143.1100  165.3788 O.3     1  UNL1       -0.4690
     27 C         143.6137  142.0459  166.3472 C.3     1  UNL1        0.2508
     28 C         142.8106  142.4125  167.5599 C.ar    1  UNL1        0.1026
     29 C         141.3265  142.5995  167.4481 C.ar    1  UNL1        0.0185
     30 C         140.5233  142.9661  168.6608 C.ar    1  UNL1        0.0029
     31 C         141.2043  143.1457  169.9851 C.ar    1  UNL1        0.0207
     32 C         142.6884  142.9587  170.0969 C.ar    1  UNL1        0.0986
     33 N         143.4915  142.5921  168.8843 N.ar    1  UNL1       -0.2445
@<TRIPOS>BOND
     1    13    14    1
     2    14    15   ar
     3    15    16   ar
     4    16    17   ar
     5    17     5    1
     6     5     6   ar
     7     6     7   ar
     8     7     1    1
     9     1     2   am
    10     2     3    2
    11     2    20    1
    12    20    21   ar
    13    21    22   ar
    14    22    23   ar
    15    23    26    1
    16    26    27    1
    17    27    28    1
    18    28    29   ar
    19    29    30   ar
    20    30    31   ar
    21    31    32   ar
    22    32    33   ar
    23    23    24   ar
    24    24    25   ar
    25     7     8   ar
    26     8     9    1
    27     8    10   ar
    28    10    11   ar
    29    11    12    1
    30    17    18   ar
    31    18    14   ar
    32    11     5   ar
    33    25    20   ar
    34    33    28   ar
    35     1     4    1
    36    18    19    1
@<TRIPOS>MOLECULE
*****
 33 36 0 0 0
SMALL
GASTEIGER

@<TRIPOS>ATOM
      1 N         141.2493  138.4937  163.9887 N.am    1  UNL1       -0.2806
      2 C         141.2053  139.4096  162.8016 C.2     1  UNL1        0.2495
      3 O         140.6741  140.8045  162.9498 O.2     1  UNL1       -0.2698
      4 H         141.5979  137.5781  163.8914 H       1  UNL1        0.1552
      5 C         141.2521  139.9661  167.6741 C.ar    1  UNL1        0.0144
      6 C         141.7395  139.4871  166.3388 C.ar    1  UNL1        0.0155
      7 C         140.7619  138.9728  165.3240 C.ar    1  UNL1        0.0465
      8 C         139.2970  138.9375  165.6445 C.ar    1  UNL1       -0.0087
      9 C         138.3194  138.4232  164.6296 C.3     1  UNL1        0.0323
     10 C         138.8096  139.4166  166.9798 C.ar    1  UNL1       -0.0072
     11 C         139.7872  139.9309  167.9945 C.ar    1  UNL1       -0.0206
     12 C         139.2998  140.4100  169.3299 C.3     1  UNL1        0.0311
     13 C         144.7302  143.0434  170.1869 C.3     1  UNL1        0.0716
     14 C         143.8284  141.8949  169.8439 C.ar    1  UNL1        0.1175
     15 N         143.6396  140.6487  170.6573 N.ar    1  UNL1       -0.2296
     16 C         142.6516  139.7745  169.9434 C.ar    1  UNL1        0.1171
     17 C         142.2297  140.4804  168.6889 C.ar    1  UNL1        0.0766
     18 N         142.9570  141.7909  168.6275 N.ar    1  UNL1       -0.3407
     19 H         142.8765  142.4644  167.9140 H       1  UNL1        0.1671
     20 C         141.6926  138.9305  161.4663 C.ar    1  UNL1        0.0539
     21 C         142.7137  137.8344  161.3897 C.ar    1  UNL1        0.0076
     22 C         143.2010  137.3554  160.0543 C.ar    1  UNL1        0.0371
     23 C         142.6673  137.9725  158.7956 C.ar    1  UNL1        0.1391
     24 C         141.6462  139.0686  158.8723 C.ar    1  UNL1        0.0371
     25 C         141.1589  139.5477  160.2076 C.ar    1  UNL1        0.0076
     26 O         143.1546  137.4935  157.4604 O.3     1  UNL1       -0.4690
     27 C         142.3557  136.4862  156.6876 C.3     1  UNL1        0.2508
     28 C         142.8826  135.0942  156.5015 C.ar    1  UNL1        0.1026
     29 C         142.7449  134.4115  155.1729 C.ar    1  UNL1        0.0185
     30 C         143.2719  133.0196  154.9868 C.ar    1  UNL1        0.0029
     31 C         143.9365  132.3102  156.1291 C.ar    1  UNL1        0.0207
     32 C         144.0742  132.9929  157.4577 C.ar    1  UNL1        0.0986
     33 N         143.5473  134.3848  157.6438 N.ar    1  UNL1       -0.2445
@<TRIPOS>BOND
     1    13    14    1
     2    14    15   ar
     3    15    16   ar
     4    16    17   ar
     5    17     5    1
     6     5     6   ar
     7     6     7   ar
     8     7     1    1
     9     1     2   am
    10     2     3    2
    11     2    20    1
    12    20    21   ar
    13    21    22   ar
    14    22    23   ar
    15    23    26    1
    16    26    27    1
    17    27    28    1
    18    28    29   ar
    19    29    30   ar
    20    30    31   ar
    21    31    32   ar
    22    32    33   ar
    23    23    24   ar
    24    24    25   ar
    25     7     8   ar
    26     8     9    1
    27     8    10   ar
    28    10    11   ar
    29    11    12    1
    30    17    18   ar
    31    18    14   ar
    32    11     5   ar
    33    25    20   ar
    34    33    28   ar
    35     1     4    1
    36    18    19    1
@<TRIPOS>MOLECULE
*****
 33 36 0 0 0
SMALL
GASTEIGER

@<TRIPOS>ATOM
      1 N         139.2712  139.2971  160.3566 N.am    1  UNL1       -0.2806
      2 C         140.6033  139.4204  159.6781 C.2     1  UNL1        0.2495
      3 O         141.5736  140.4768  160.1170 O.2     1  UNL1       -0.2698
      4 H         138.6343  138.6037  160.0685 H       1  UNL1        0.1552
      5 C         138.6645  140.7082  164.0159 C.ar    1  UNL1        0.0144
      6 C         139.0263  139.7751  162.8986 C.ar    1  UNL1        0.0155
      7 C         138.9094  140.2301  161.4741 C.ar    1  UNL1        0.0465
      8 C         138.4308  141.6181  161.1669 C.ar    1  UNL1       -0.0087
      9 C         138.3139  142.0731  159.7423 C.3     1  UNL1        0.0323
     10 C         138.0690  142.5512  162.2842 C.ar    1  UNL1       -0.0072
     11 C         138.1859  142.0962  163.7088 C.ar    1  UNL1       -0.0206
     12 C         137.8241  143.0292  164.8262 C.3     1  UNL1        0.0311
     13 C         140.2532  140.2655  169.0320 C.3     1  UNL1        0.0716
     14 C         139.5116  140.0497  167.7461 C.ar    1  UNL1        0.1175
     15 N         138.4107  139.0564  167.5192 N.ar    1  UNL1       -0.2296
     16 C         137.9594  139.1822  166.0943 C.ar    1  UNL1        0.1171
     17 C         138.7814  140.2532  165.4405 C.ar    1  UNL1        0.0766
     18 N         139.7407  140.7894  166.4614 N.ar    1  UNL1       -0.3407
     19 H         140.4041  141.5016  166.3142 H       1  UNL1        0.1671
     20 C         140.9650  138.4874  158.5607 C.ar    1  UNL1        0.0539
     21 C         142.3727  137.9864  158.4280 C.ar    1  UNL1        0.0076
     22 C         142.7344  137.0534  157.3105 C.ar    1  UNL1        0.0371
     23 C         141.6886  136.6214  156.3258 C.ar    1  UNL1        0.1391
     24 C         140.2810  137.1224  156.4586 C.ar    1  UNL1        0.0371
     25 C         139.9192  138.0554  157.5760 C.ar    1  UNL1        0.0076
     26 O         142.0504  135.6885  155.2084 O.3     1  UNL1       -0.4690
     27 C         141.8787  134.2084  155.3818 C.3     1  UNL1        0.2508
     28 C         142.9914  133.3874  155.9632 C.ar    1  UNL1        0.1026
     29 C         143.5603  132.2376  155.1857 C.ar    1  UNL1        0.0185
     30 C         144.6729  131.4166  155.7670 C.ar    1  UNL1        0.0029
     31 C         145.2166  131.7453  157.1258 C.ar    1  UNL1        0.0207
     32 C         144.6477  132.8950  157.9032 C.ar    1  UNL1        0.0986
     33 N         143.5351  133.7161  157.3219 N.ar    1  UNL1       -0.2445
@<TRIPOS>BOND
     1    13    14    1
     2    14    15   ar
     3    15    16   ar
     4    16    17   ar
     5    17     5    1
     6     5     6   ar
     7     6     7   ar
     8     7     1    1
     9     1     2   am
    10     2     3    2
    11     2    20    1
    12    20    21   ar
    13    21    22   ar
    14    22    23   ar
    15    23    26    1
    16    26    27    1
    17    27    28    1
    18    28    29   ar
    19    29    30   ar
    20    30    31   ar
    21    31    32   ar
    22    32    33   ar
    23    23    24   ar
    24    24    25   ar
    25     7     8   ar
    26     8     9    1
    27     8    10   ar
    28    10    11   ar
    29    11    12    1
    30    17    18   ar
    31    18    14   ar
    32    11     5   ar
    33    25    20   ar
    34    33    28   ar
    35     1     4    1
    36    18    19    1
@<TRIPOS>MOLECULE
*****
 33 36 0 0 0
SMALL
GASTEIGER

@<TRIPOS>ATOM
      1 N         140.3652  142.1331  162.0746 N.am    1  UNL1       -0.2806
      2 C         139.4775  143.1792  161.4682 C.2     1  UNL1        0.2495
      3 O         138.2425  143.6265  162.1926 O.2     1  UNL1       -0.2698
      4 H         141.1758  141.8395  161.5991 H       1  UNL1        0.1552
      5 C         140.3246  141.4504  165.9838 C.ar    1  UNL1        0.0144
      6 C         140.6720  142.0491  164.6531 C.ar    1  UNL1        0.0155
      7 C         140.0179  141.5343  163.4053 C.ar    1  UNL1        0.0465
      8 C         139.0164  140.4207  163.4882 C.ar    1  UNL1       -0.0087
      9 C         138.3622  139.9059  162.2403 C.3     1  UNL1        0.0323
     10 C         138.6690  139.8219  164.8189 C.ar    1  UNL1       -0.0072
     11 C         139.3232  140.3367  166.0667 C.ar    1  UNL1       -0.0206
     12 C         138.9758  139.7379  167.3975 C.3     1  UNL1        0.0311
     13 C         143.8428  142.2855  169.8317 C.3     1  UNL1        0.0716
     14 C         142.5959  142.3490  169.0003 C.ar    1  UNL1        0.1175
     15 N         141.3748  143.1658  169.3035 N.ar    1  UNL1       -0.2296
     16 C         140.3754  142.9286  168.2104 C.ar    1  UNL1        0.1171
     17 C         140.9788  141.9652  167.2317 C.ar    1  UNL1        0.0766
     18 N         142.3511  141.6070  167.7199 N.ar    1  UNL1       -0.3407
     19 H         142.9807  140.9928  167.2776 H       1  UNL1        0.1671
     20 C         139.8248  143.7780  160.1375 C.ar    1  UNL1        0.0539
     21 C         140.8076  144.9084  160.0572 C.ar    1  UNL1        0.0076
     22 C         141.1548  145.5072  158.7264 C.ar    1  UNL1        0.0371
     23 C         140.5193  144.9756  157.4760 C.ar    1  UNL1        0.1391
     24 C         139.5366  143.8452  157.5563 C.ar    1  UNL1        0.0371
     25 C         139.1893  143.2464  158.8870 C.ar    1  UNL1        0.0076
     26 O         140.8666  145.5744  156.1453 O.3     1  UNL1       -0.4690
     27 C         139.7837  146.1221  155.2637 C.3     1  UNL1        0.2508
     28 C         139.4532  147.5848  155.3024 C.ar    1  UNL1        0.1026
     29 C         138.7563  148.1649  156.4973 C.ar    1  UNL1        0.0185
     30 C         138.4258  149.6275  156.5359 C.ar    1  UNL1        0.0029
     31 C         138.7922  150.5100  155.3797 C.ar    1  UNL1        0.0207
     32 C         139.4891  149.9299  154.1848 C.ar    1  UNL1        0.0986
     33 N         139.8196  148.4673  154.1461 N.ar    1  UNL1       -0.2445
@<TRIPOS>BOND
     1    13    14    1
     2    14    15   ar
     3    15    16   ar
     4    16    17   ar
     5    17     5    1
     6     5     6   ar
     7     6     7   ar
     8     7     1    1
     9     1     2   am
    10     2     3    2
    11     2    20    1
    12    20    21   ar
    13    21    22   ar
    14    22    23   ar
    15    23    26    1
    16    26    27    1
    17    27    28    1
    18    28    29   ar
    19    29    30   ar
    20    30    31   ar
    21    31    32   ar
    22    32    33   ar
    23    23    24   ar
    24    24    25   ar
    25     7     8   ar
    26     8     9    1
    27     8    10   ar
    28    10    11   ar
    29    11    12    1
    30    17    18   ar
    31    18    14   ar
    32    11     5   ar
    33    25    20   ar
    34    33    28   ar
    35     1     4    1
    36    18    19    1
@<TRIPOS>MOLECULE
*****
 33 36 0 0 0
SMALL
GASTEIGER

@<TRIPOS>ATOM
      1 N         141.8746  139.6306  162.2348 N.am    1  UNL1       -0.2806
      2 C         141.7249  140.8133  161.3244 C.2     1  UNL1        0.2495
      3 O         140.6404  141.8192  161.5737 O.2     1  UNL1       -0.2698
      4 H         142.5863  138.9704  162.0712 H       1  UNL1        0.1552
      5 C         140.2846  139.9688  165.8553 C.ar    1  UNL1        0.0144
      6 C         141.2195  140.1456  164.6957 C.ar    1  UNL1        0.0155
      7 C         140.9397  139.4538  163.3945 C.ar    1  UNL1        0.0465
      8 C         139.7250  138.5852  163.2530 C.ar    1  UNL1       -0.0087
      9 C         139.4452  137.8933  161.9517 C.3     1  UNL1        0.0323
     10 C         138.7901  138.4084  164.4125 C.ar    1  UNL1       -0.0072
     11 C         139.0699  139.1002  165.7137 C.ar    1  UNL1       -0.0206
     12 C         138.1350  138.9234  166.8734 C.3     1  UNL1        0.0311
     13 C         140.4938  143.6335  169.6510 C.3     1  UNL1        0.0716
     14 C         140.6606  142.3451  168.9012 C.ar    1  UNL1        0.1175
     15 N         141.3294  141.1053  169.4165 N.ar    1  UNL1       -0.2296
     16 C         141.2700  140.0642  168.3383 C.ar    1  UNL1        0.1171
     17 C         140.5644  140.6606  167.1565 C.ar    1  UNL1        0.0766
     18 N         140.1878  142.0703  167.5044 N.ar    1  UNL1       -0.3407
     19 H         139.7136  142.7039  166.9188 H       1  UNL1        0.1671
     20 C         142.6598  140.9901  160.1648 C.ar    1  UNL1        0.0539
     21 C         143.5056  142.2248  160.0647 C.ar    1  UNL1        0.0076
     22 C         144.4404  142.4016  158.9050 C.ar    1  UNL1        0.0371
     23 C         144.5294  141.3437  157.8454 C.ar    1  UNL1        0.1391
     24 C         143.6836  140.1090  157.9454 C.ar    1  UNL1        0.0371
     25 C         142.7488  139.9321  159.1051 C.ar    1  UNL1        0.0076
     26 O         145.4642  141.5205  156.6858 O.3     1  UNL1       -0.4690
     27 C         146.6547  142.4242  156.8131 C.3     1  UNL1        0.2508
     28 C         147.6023  142.5830  155.6612 C.ar    1  UNL1        0.1026
     29 C         148.8465  141.7479  155.5929 C.ar    1  UNL1        0.0185
     30 C         149.7941  141.9067  154.4410 C.ar    1  UNL1        0.0029
     31 C         149.4975  142.9006  153.3575 C.ar    1  UNL1        0.0207
     32 C         148.2534  143.7357  153.4258 C.ar    1  UNL1        0.0986
     33 N         147.3058  143.5769  154.5776 N.ar    1  UNL1       -0.2445
@<TRIPOS>BOND
     1    13    14    1
     2    14    15   ar
     3    15    16   ar
     4    16    17   ar
     5    17     5    1
     6     5     6   ar
     7     6     7   ar
     8     7     1    1
     9     1     2   am
    10     2     3    2
    11     2    20    1
    12    20    21   ar
    13    21    22   ar
    14    22    23   ar
    15    23    26    1
    16    26    27    1
    17    27    28    1
    18    28    29   ar
    19    29    30   ar
    20    30    31   ar
    21    31    32   ar
    22    32    33   ar
    23    23    24   ar
    24    24    25   ar
    25     7     8   ar
    26     8     9    1
    27     8    10   ar
    28    10    11   ar
    29    11    12    1
    30    17    18   ar
    31    18    14   ar
    32    11     5   ar
    33    25    20   ar
    34    33    28   ar
    35     1     4    1
    36    18    19    1
@<TRIPOS>MOLECULE
*****
 33 36 0 0 0
SMALL
GASTEIGER

@<TRIPOS>ATOM
      1 N         143.6253  136.7809  156.2881 N.am    1  UNL1       -0.2806
      2 C         142.5392  137.5253  157.0067 C.2     1  UNL1        0.2495
      3 O         141.1468  136.9684  157.0447 O.2     1  UNL1       -0.2698
      4 H         144.5391  137.1463  156.2632 H       1  UNL1        0.1552
      5 C         143.3831  132.8826  155.5850 C.ar    1  UNL1        0.0144
      6 C         143.6894  134.1837  156.2656 C.ar    1  UNL1        0.0155
      7 C         143.3190  135.4797  155.6075 C.ar    1  UNL1        0.0465
      8 C         142.6423  135.4746  154.2689 C.ar    1  UNL1       -0.0087
      9 C         142.2718  136.7707  153.6108 C.3     1  UNL1        0.0323
     10 C         142.3359  134.1735  153.5883 C.ar    1  UNL1       -0.0072
     11 C         142.7063  132.8775  154.2464 C.ar    1  UNL1       -0.0206
     12 C         142.4000  131.5762  153.5658 C.3     1  UNL1        0.0311
     13 C         143.5673  128.8535  158.9930 C.3     1  UNL1        0.0716
     14 C         143.8381  129.7345  157.8095 C.ar    1  UNL1        0.1175
     15 N         144.8088  129.4495  156.7019 N.ar    1  UNL1       -0.2296
     16 C         144.7564  130.5941  155.7339 C.ar    1  UNL1        0.1171
     17 C         143.7535  131.5865  156.2431 C.ar    1  UNL1        0.0766
     18 N         143.1860  131.0552  157.5260 N.ar    1  UNL1       -0.3407
     19 H         142.5050  131.4959  158.0839 H       1  UNL1        0.1671
     20 C         142.8454  138.8264  157.6873 C.ar    1  UNL1        0.0539
     21 C         143.0718  138.8624  159.1697 C.ar    1  UNL1        0.0076
     22 C         143.3781  140.1636  159.8502 C.ar    1  UNL1        0.0371
     23 C         143.4579  141.4288  159.0484 C.ar    1  UNL1        0.1391
     24 C         143.2315  141.3928  157.5660 C.ar    1  UNL1        0.0371
     25 C         142.9253  140.0917  156.8854 C.ar    1  UNL1        0.0076
     26 O         143.7642  142.7299  159.7289 O.3     1  UNL1       -0.4690
     27 C         144.9092  142.8205  160.6936 C.3     1  UNL1        0.2508
     28 C         144.6568  143.1938  162.1244 C.ar    1  UNL1        0.1026
     29 C         145.0430  142.2506  163.2249 C.ar    1  UNL1        0.0185
     30 C         144.7906  142.6239  164.6556 C.ar    1  UNL1        0.0029
     31 C         144.1521  143.9404  164.9857 C.ar    1  UNL1        0.0207
     32 C         143.7659  144.8836  163.8852 C.ar    1  UNL1        0.0986
     33 N         144.0183  144.5103  162.4545 N.ar    1  UNL1       -0.2445
@<TRIPOS>BOND
     1    13    14    1
     2    14    15   ar
     3    15    16   ar
     4    16    17   ar
     5    17     5    1
     6     5     6   ar
     7     6     7   ar
     8     7     1    1
     9     1     2   am
    10     2     3    2
    11     2    20    1
    12    20    21   ar
    13    21    22   ar
    14    22    23   ar
    15    23    26    1
    16    26    27    1
    17    27    28    1
    18    28    29   ar
    19    29    30   ar
    20    30    31   ar
    21    31    32   ar
    22    32    33   ar
    23    23    24   ar
    24    24    25   ar
    25     7     8   ar
    26     8     9    1
    27     8    10   ar
    28    10    11   ar
    29    11    12    1
    30    17    18   ar
    31    18    14   ar
    32    11     5   ar
    33    25    20   ar
    34    33    28   ar
    35     1     4    1
    36    18    19    1
@<TRIPOS>MOLECULE
*****
 33 36 0 0 0
SMALL
GASTEIGER

@<TRIPOS>ATOM
      1 N         142.2433  138.8701  160.4823 N.am    1  UNL1       -0.2806
      2 C         143.1364  138.3795  161.5830 C.2     1  UNL1        0.2495
      3 O         144.3960  137.6355  161.2514 O.2     1  UNL1       -0.2698
      4 H         141.4166  139.3584  160.7000 H       1  UNL1        0.1552
      5 C         142.9519  136.9661  157.0732 C.ar    1  UNL1        0.0144
      6 C         142.5855  137.2194  158.5055 C.ar    1  UNL1        0.0155
      7 C         142.6098  138.6168  159.0500 C.ar    1  UNL1        0.0465
      8 C         143.0005  139.7610  158.1622 C.ar    1  UNL1       -0.0087
      9 C         143.0248  141.1585  158.7067 C.3     1  UNL1        0.0323
     10 C         143.3670  139.5077  156.7299 C.ar    1  UNL1       -0.0072
     11 C         143.3427  138.1102  156.1854 C.ar    1  UNL1       -0.0206
     12 C         143.7092  137.8569  154.7530 C.3     1  UNL1        0.0311
     13 C         144.3850  132.0444  155.8065 C.3     1  UNL1        0.0716
     14 C         143.5864  133.3064  155.9464 C.ar    1  UNL1        0.1175
     15 N         142.1941  133.5299  155.4349 N.ar    1  UNL1       -0.2296
     16 C         141.7870  134.9280  155.7947 C.ar    1  UNL1        0.1171
     17 C         142.9276  135.5686  156.5286 C.ar    1  UNL1        0.0766
     18 N         144.0397  134.5663  156.6224 N.ar    1  UNL1       -0.3407
     19 H         144.9137  134.7102  157.0521 H       1  UNL1        0.1671
     20 C         142.7700  138.6328  163.0153 C.ar    1  UNL1        0.0539
     21 C         143.5003  139.6802  163.8024 C.ar    1  UNL1        0.0076
     22 C         143.1339  139.9335  165.2348 C.ar    1  UNL1        0.0371
     23 C         142.0371  139.1394  165.8800 C.ar    1  UNL1        0.1391
     24 C         141.3067  138.0920  165.0929 C.ar    1  UNL1        0.0371
     25 C         141.6731  137.8386  163.6607 C.ar    1  UNL1        0.0076
     26 O         141.6706  139.3927  167.3123 O.3     1  UNL1       -0.4690
     27 C         140.4231  140.1569  167.6434 C.3     1  UNL1        0.2508
     28 C         139.8653  141.1441  166.6613 C.ar    1  UNL1        0.1026
     29 C         140.3645  142.5585  166.6541 C.ar    1  UNL1        0.0185
     30 C         139.8068  143.5457  165.6720 C.ar    1  UNL1        0.0029
     31 C         138.7499  143.1184  164.6972 C.ar    1  UNL1        0.0207
     32 C         138.2508  141.7039  164.7045 C.ar    1  UNL1        0.0986
     33 N         138.8085  140.7167  165.6865 N.ar    1  UNL1       -0.2445
@<TRIPOS>BOND
     1    13    14    1
     2    14    15   ar
     3    15    16   ar
     4    16    17   ar
     5    17     5    1
     6     5     6   ar
     7     6     7   ar
     8     7     1    1
     9     1     2   am
    10     2     3    2
    11     2    20    1
    12    20    21   ar
    13    21    22   ar
    14    22    23   ar
    15    23    26    1
    16    26    27    1
    17    27    28    1
    18    28    29   ar
    19    29    30   ar
    20    30    31   ar
    21    31    32   ar
    22    32    33   ar
    23    23    24   ar
    24    24    25   ar
    25     7     8   ar
    26     8     9    1
    27     8    10   ar
    28    10    11   ar
    29    11    12    1
    30    17    18   ar
    31    18    14   ar
    32    11     5   ar
    33    25    20   ar
    34    33    28   ar
    35     1     4    1
    36    18    19    1
@<TRIPOS>MOLECULE
*****
 33 36 0 0 0
SMALL
GASTEIGER

@<TRIPOS>ATOM
      1 N         143.7134  135.8228  155.0189 N.am    1  UNL1       -0.2806
      2 C         143.0887  136.8648  155.8986 C.2     1  UNL1        0.2495
      3 O         141.8459  136.5440  156.6749 O.2     1  UNL1       -0.2698
      4 H         144.5291  136.0333  154.5095 H       1  UNL1        0.1552
      5 C         143.0142  131.9655  155.6374 C.ar    1  UNL1        0.0144
      6 C         143.6323  133.3283  155.7408 C.ar    1  UNL1        0.0155
      7 C         143.0954  134.4599  154.9155 C.ar    1  UNL1        0.0465
      8 C         141.9404  134.2287  153.9868 C.ar    1  UNL1       -0.0087
      9 C         141.4035  135.3604  153.1615 C.3     1  UNL1        0.0323
     10 C         141.3223  132.8660  153.8834 C.ar    1  UNL1       -0.0072
     11 C         141.8592  131.7344  154.7087 C.ar    1  UNL1       -0.0206
     12 C         141.2411  130.3715  154.6053 C.3     1  UNL1        0.0311
     13 C         143.8401  128.6165  159.6353 C.3     1  UNL1        0.0716
     14 C         143.9307  129.2945  158.3004 C.ar    1  UNL1        0.1175
     15 N         144.8239  128.8903  157.1650 N.ar    1  UNL1       -0.2296
     16 C         144.5892  129.8417  156.0293 C.ar    1  UNL1        0.1171
     17 C         143.5511  130.8338  156.4627 C.ar    1  UNL1        0.0766
     18 N         143.1441  130.4957  157.8663 N.ar    1  UNL1       -0.3407
     19 H         142.4777  130.9775  158.4076 H       1  UNL1        0.1671
     20 C         143.7067  138.2277  156.0020 C.ar    1  UNL1        0.0539
     21 C         143.2753  139.1662  157.0897 C.ar    1  UNL1        0.0076
     22 C         143.8934  140.5291  157.1931 C.ar    1  UNL1        0.0371
     23 C         144.9428  140.9533  156.2089 C.ar    1  UNL1        0.1391
     24 C         145.3742  140.0147  155.1212 C.ar    1  UNL1        0.0371
     25 C         144.7562  138.6519  155.0178 C.ar    1  UNL1        0.0076
     26 O         145.5609  142.3162  156.3123 O.3     1  UNL1       -0.4690
     27 C         147.0026  142.4583  156.7012 C.3     1  UNL1        0.2508
     28 C         148.0720  142.3989  155.6510 C.ar    1  UNL1        0.1026
     29 C         147.8222  142.9831  154.2923 C.ar    1  UNL1        0.0185
     30 C         148.8916  142.9236  153.2421 C.ar    1  UNL1        0.0029
     31 C         150.2108  142.2799  153.5508 C.ar    1  UNL1        0.0207
     32 C         150.4606  141.6957  154.9095 C.ar    1  UNL1        0.0986
     33 N         149.3913  141.7552  155.9597 N.ar    1  UNL1       -0.2445
@<TRIPOS>BOND
     1    13    14    1
     2    14    15   ar
     3    15    16   ar
     4    16    17   ar
     5    17     5    1
     6     5     6   ar
     7     6     7   ar
     8     7     1    1
     9     1     2   am
    10     2     3    2
    11     2    20    1
    12    20    21   ar
    13    21    22   ar
    14    22    23   ar
    15    23    26    1
    16    26    27    1
    17    27    28    1
    18    28    29   ar
    19    29    30   ar
    20    30    31   ar
    21    31    32   ar
    22    32    33   ar
    23    23    24   ar
    24    24    25   ar
    25     7     8   ar
    26     8     9    1
    27     8    10   ar
    28    10    11   ar
    29    11    12    1
    30    17    18   ar
    31    18    14   ar
    32    11     5   ar
    33    25    20   ar
    34    33    28   ar
    35     1     4    1
    36    18    19    1
