@<TRIPOS>MOLECULE
*****
 35 39 0 0 0
SMALL
GASTEIGER

@<TRIPOS>ATOM
      1 N         142.7410  140.1845  167.2817 N.3     1  UNL1       -0.2724
      2 C         143.0873  138.7267  167.3528 C.3     1  UNL1        0.0721
      3 C         143.7628  138.3475  166.0683 C.3     1  UNL1        0.0187
      4 C         143.8339  139.5709  165.2033 C.3     1  UNL1        0.0178
      5 C         143.2024  140.7062  165.9532 C.3     1  UNL1        0.0721
      6 C         142.0539  140.9806  168.3512 C.3     1  UNL1        0.0768
      7 C         140.5558  141.0456  168.3924 C.3     1  UNL1        0.0439
      8 C         139.7656  140.9447  167.1213 C.ar    1  UNL1       -0.0193
      9 C         139.0238  139.6818  166.7977 C.ar    1  UNL1       -0.0041
     10 C         138.2336  139.5809  165.5267 C.ar    1  UNL1        0.0012
     11 C         138.1852  140.7430  164.5794 C.ar    1  UNL1        0.0192
     12 C         138.9270  142.0059  164.9031 C.ar    1  UNL1        0.0843
     13 C         139.7172  142.1067  166.1740 C.ar    1  UNL1        0.0150
     14 N         138.8785  143.1679  163.9558 N.ar    1  UNL1       -0.2079
     15 C         137.8680  143.3764  162.8671 C.ar    1  UNL1        0.2016
     16 N         138.1971  144.6628  162.1693 N.ar    1  UNL1       -0.2004
     17 C         139.4110  145.2493  162.8268 C.ar    1  UNL1        0.2214
     18 N         139.8322  144.3254  163.9309 N.ar    1  UNL1       -0.1409
     19 C         139.8480  141.2114  169.7044 C.3     1  UNL1        0.0474
     20 O         140.5426  142.2378  171.9880 O.co2   1  UNL1       -0.5492
     21 C         140.1234  142.4135  170.5584 C.2     1  UNL1        0.0507
     22 O         139.9794  143.7912  169.9830 O.co2   1  UNL1       -0.5492
     23 C         144.4317  139.6458  163.8296 C.3     1  UNL1        0.0077
     24 C         143.8975  138.7756  162.7308 C.3     1  UNL1        0.0459
     25 C         142.4196  138.6993  162.4859 C.ar    1  UNL1        0.0603
     26 C         141.6142  137.5917  163.0979 C.ar    1  UNL1        0.0145
     27 C         140.1363  137.5153  162.8530 C.ar    1  UNL1       -0.0003
     28 C         139.4637  138.5465  161.9961 C.ar    1  UNL1        0.0092
     29 C         140.2691  139.6541  161.3841 C.ar    1  UNL1        0.1240
     30 N         141.7471  139.7305  161.6290 N.ar    1  UNL1       -0.2356
     31 N         139.5966  140.6854  160.5272 N.pl3   1  UNL1       -0.3184
     32 C         138.1188  140.6090  160.2823 C.3     1  UNL1        0.0885
     33 C         137.3134  139.5013  160.8943 C.3     1  UNL1        0.0260
     34 C         137.9859  138.4701  161.7512 C.3     1  UNL1        0.0309
     35 H         140.1252  141.4123  160.1256 H       1  UNL1        0.1482
@<TRIPOS>UNITY_ATOM_ATTR
20 1
charge -1
@<TRIPOS>BOND
     1    20    21   ar
     2    21    22   ar
     3    21    19    1
     4     7    19    1
     5     7     6    1
     6     6     1    1
     7     1     2    1
     8     2     3    1
     9     3     4    1
    10     4    23    1
    11    23    24    1
    12    24    25    1
    13    25    26   ar
    14    26    27   ar
    15    27    28   ar
    16    28    29   ar
    17    29    30   ar
    18    29    31    1
    19    31    32    1
    20    32    33    1
    21    33    34    1
    22     4     5    1
    23     7     8    1
    24     8     9   ar
    25     9    10   ar
    26    10    11   ar
    27    11    12   ar
    28    12    14    1
    29    14    15   ar
    30    15    16   ar
    31    16    17   ar
    32    17    18   ar
    33    12    13   ar
    34     5     1    1
    35    13     8   ar
    36    30    25   ar
    37    18    14   ar
    38    34    28    1
    39    31    35    1
@<TRIPOS>MOLECULE
*****
 35 39 0 0 0
SMALL
GASTEIGER

@<TRIPOS>ATOM
      1 N         141.2951  142.5167  166.8463 N.3     1  UNL1       -0.2724
      2 C         142.1165  142.7770  165.6185 C.3     1  UNL1        0.0721
      3 C         141.3110  143.6443  164.6972 C.3     1  UNL1        0.0187
      4 C         139.9917  143.9200  165.3556 C.3     1  UNL1        0.0178
      5 C         139.9819  143.2231  166.6838 C.3     1  UNL1        0.0721
      6 C         141.7135  141.6943  168.0290 C.3     1  UNL1        0.0768
      7 C         141.0561  140.3722  168.2935 C.3     1  UNL1        0.0439
      8 C         140.3037  139.6762  167.1982 C.ar    1  UNL1       -0.0193
      9 C         138.8533  139.3401  167.3808 C.ar    1  UNL1       -0.0041
     10 C         138.1011  138.6442  166.2855 C.ar    1  UNL1        0.0012
     11 C         138.7992  138.2843  165.0075 C.ar    1  UNL1        0.0192
     12 C         140.2495  138.6205  164.8249 C.ar    1  UNL1        0.0843
     13 C         141.0018  139.3164  165.9202 C.ar    1  UNL1        0.0150
     14 N         140.9476  138.2606  163.5469 N.ar    1  UNL1       -0.2079
     15 C         140.2844  137.8594  162.2627 C.ar    1  UNL1        0.2016
     16 N         141.3584  137.5896  161.2509 N.ar    1  UNL1       -0.2004
     17 C         142.6854  137.8242  161.9097 C.ar    1  UNL1        0.2214
     18 N         142.4315  138.2389  163.3288 N.ar    1  UNL1       -0.1409
     19 C         141.1510  139.7461  169.6533 C.3     1  UNL1        0.0474
     20 O         138.8058  139.7129  170.7710 O.co2   1  UNL1       -0.5492
     21 C         140.2280  140.1897  170.7493 C.2     1  UNL1        0.0507
     22 O         140.7270  141.1100  171.8235 O.co2   1  UNL1       -0.5492
     23 C         138.8778  144.7474  164.7858 C.3     1  UNL1        0.0077
     24 C         137.6485  144.0795  164.2450 C.3     1  UNL1        0.0459
     25 C         137.7703  143.0443  163.1663 C.ar    1  UNL1        0.0603
     26 C         137.6010  141.5914  163.4985 C.ar    1  UNL1        0.0145
     27 C         137.7228  140.5562  162.4199 C.ar    1  UNL1       -0.0003
     28 C         138.0138  140.9739  161.0088 C.ar    1  UNL1        0.0092
     29 C         138.1831  142.4268  160.6766 C.ar    1  UNL1        0.1240
     30 N         138.0613  143.4620  161.7553 N.ar    1  UNL1       -0.2356
     31 N         138.4741  142.8446  159.2657 N.pl3   1  UNL1       -0.3184
     32 C         138.5959  141.8094  158.1870 C.3     1  UNL1        0.0885
     33 C         138.4266  140.3565  158.5193 C.3     1  UNL1        0.0260
     34 C         138.1356  139.9388  159.9302 C.3     1  UNL1        0.0309
     35 H         138.5852  143.7982  159.0476 H       1  UNL1        0.1482
@<TRIPOS>UNITY_ATOM_ATTR
20 1
charge -1
@<TRIPOS>BOND
     1    20    21   ar
     2    21    22   ar
     3    21    19    1
     4     7    19    1
     5     7     6    1
     6     6     1    1
     7     1     2    1
     8     2     3    1
     9     3     4    1
    10     4    23    1
    11    23    24    1
    12    24    25    1
    13    25    26   ar
    14    26    27   ar
    15    27    28   ar
    16    28    29   ar
    17    29    30   ar
    18    29    31    1
    19    31    32    1
    20    32    33    1
    21    33    34    1
    22     4     5    1
    23     7     8    1
    24     8     9   ar
    25     9    10   ar
    26    10    11   ar
    27    11    12   ar
    28    12    14    1
    29    14    15   ar
    30    15    16   ar
    31    16    17   ar
    32    17    18   ar
    33    12    13   ar
    34     5     1    1
    35    13     8   ar
    36    30    25   ar
    37    18    14   ar
    38    34    28    1
    39    31    35    1
@<TRIPOS>MOLECULE
*****
 35 39 0 0 0
SMALL
GASTEIGER

@<TRIPOS>ATOM
      1 N         138.2447  141.1758  164.3767 N.3     1  UNL1       -0.2724
      2 C         138.3267  140.0743  165.3917 C.3     1  UNL1        0.0721
      3 C         138.5803  138.7890  164.6613 C.3     1  UNL1        0.0187
      4 C         138.6552  139.0960  163.1949 C.3     1  UNL1        0.0178
      5 C         138.4477  140.5712  163.0191 C.3     1  UNL1        0.0721
      6 C         138.0023  142.6271  164.6683 C.3     1  UNL1        0.0768
      7 C         139.1627  143.5644  164.8262 C.3     1  UNL1        0.0439
      8 C         140.3753  143.1335  165.5971 C.ar    1  UNL1       -0.0193
      9 C         141.7014  143.0175  164.9057 C.ar    1  UNL1       -0.0041
     10 C         142.9139  142.5866  165.6765 C.ar    1  UNL1        0.0012
     11 C         142.8003  142.2719  167.1387 C.ar    1  UNL1        0.0192
     12 C         141.4743  142.3879  167.8301 C.ar    1  UNL1        0.0843
     13 C         140.2618  142.8188  167.0593 C.ar    1  UNL1        0.0150
     14 N         141.3607  142.0732  169.2923 N.ar    1  UNL1       -0.2079
     15 C         140.4635  142.7643  170.2759 C.ar    1  UNL1        0.2016
     16 N         140.6727  142.1303  171.6191 N.ar    1  UNL1       -0.2004
     17 C         141.6992  141.0474  171.4657 C.ar    1  UNL1        0.2214
     18 N         142.1244  141.0121  170.0276 N.ar    1  UNL1       -0.1409
     19 C         139.1105  144.9325  164.2134 C.3     1  UNL1        0.0474
     20 O         140.2009  146.1760  162.2097 O.co2   1  UNL1       -0.5492
     21 C         139.2977  145.0995  162.7345 C.2     1  UNL1        0.0507
     22 O         138.5817  144.1901  161.7805 O.co2   1  UNL1       -0.5492
     23 C         138.8953  138.1024  162.0972 C.3     1  UNL1        0.0077
     24 C         140.2384  138.0280  161.4336 C.3     1  UNL1        0.0459
     25 C         141.4473  138.5890  162.1220 C.ar    1  UNL1        0.0603
     26 C         141.9754  137.9330  163.3633 C.ar    1  UNL1        0.0145
     27 C         143.1842  138.4939  164.0518 C.ar    1  UNL1       -0.0003
     28 C         143.8650  139.7109  163.4990 C.ar    1  UNL1        0.0092
     29 C         143.3369  140.3670  162.2577 C.ar    1  UNL1        0.1240
     30 N         142.1280  139.8060  161.5693 N.ar    1  UNL1       -0.2356
     31 N         144.0176  141.5839  161.7050 N.pl3   1  UNL1       -0.3184
     32 C         145.2265  142.1448  162.3934 C.3     1  UNL1        0.0885
     33 C         145.7546  141.4888  163.6347 C.3     1  UNL1        0.0260
     34 C         145.0738  140.2719  164.1875 C.3     1  UNL1        0.0309
     35 H         143.6710  142.0145  160.8903 H       1  UNL1        0.1482
@<TRIPOS>UNITY_ATOM_ATTR
20 1
charge -1
@<TRIPOS>BOND
     1    20    21   ar
     2    21    22   ar
     3    21    19    1
     4     7    19    1
     5     7     6    1
     6     6     1    1
     7     1     2    1
     8     2     3    1
     9     3     4    1
    10     4    23    1
    11    23    24    1
    12    24    25    1
    13    25    26   ar
    14    26    27   ar
    15    27    28   ar
    16    28    29   ar
    17    29    30   ar
    18    29    31    1
    19    31    32    1
    20    32    33    1
    21    33    34    1
    22     4     5    1
    23     7     8    1
    24     8     9   ar
    25     9    10   ar
    26    10    11   ar
    27    11    12   ar
    28    12    14    1
    29    14    15   ar
    30    15    16   ar
    31    16    17   ar
    32    17    18   ar
    33    12    13   ar
    34     5     1    1
    35    13     8   ar
    36    30    25   ar
    37    18    14   ar
    38    34    28    1
    39    31    35    1
@<TRIPOS>MOLECULE
*****
 35 39 0 0 0
SMALL
GASTEIGER

@<TRIPOS>ATOM
      1 N         138.1632  141.0809  164.1113 N.3     1  UNL1       -0.2724
      2 C         137.5458  141.2606  162.7561 C.3     1  UNL1        0.0721
      3 C         137.7767  142.6789  162.3259 C.3     1  UNL1        0.0187
      4 C         138.5368  143.3758  163.4152 C.3     1  UNL1        0.0178
      5 C         138.7756  142.3882  164.5186 C.3     1  UNL1        0.0721
      6 C         138.1673  139.8161  164.9176 C.3     1  UNL1        0.0768
      7 C         139.4075  138.9752  164.9875 C.3     1  UNL1        0.0439
      8 C         140.4671  139.2844  166.0034 C.ar    1  UNL1       -0.0193
      9 C         141.8659  138.7807  165.8052 C.ar    1  UNL1       -0.0041
     10 C         142.9254  139.0899  166.8210 C.ar    1  UNL1        0.0012
     11 C         142.5859  139.9028  168.0351 C.ar    1  UNL1        0.0192
     12 C         141.1870  140.4065  168.2333 C.ar    1  UNL1        0.0843
     13 C         140.1276  140.0974  167.2174 C.ar    1  UNL1        0.0150
     14 N         140.8475  141.2195  169.4474 N.ar    1  UNL1       -0.2079
     15 C         141.2416  140.9021  170.8594 C.ar    1  UNL1        0.2016
     16 N         140.6920  141.9789  171.7473 N.ar    1  UNL1       -0.2004
     17 C         139.9583  142.9619  170.8839 C.ar    1  UNL1        0.2214
     18 N         140.0545  142.4925  169.4624 N.ar    1  UNL1       -0.1409
     19 C         139.5882  137.8253  164.0415 C.3     1  UNL1        0.0474
     20 O         138.8780  137.8443  161.5424 O.co2   1  UNL1       -0.5492
     21 C         139.9142  138.0837  162.6003 C.2     1  UNL1        0.0507
     22 O         141.2763  138.5815  162.2170 O.co2   1  UNL1       -0.5492
     23 C         138.9802  144.8087  163.4031 C.3     1  UNL1        0.0077
     24 C         140.2736  145.1880  162.7449 C.3     1  UNL1        0.0459
     25 C         141.5424  144.4823  163.1222 C.ar    1  UNL1        0.0603
     26 C         142.6222  145.2215  163.8554 C.ar    1  UNL1        0.0145
     27 C         143.8909  144.5158  164.2326 C.ar    1  UNL1       -0.0003
     28 C         144.0799  143.0709  163.8766 C.ar    1  UNL1        0.0092
     29 C         143.0001  142.3318  163.1434 C.ar    1  UNL1        0.1240
     30 N         141.7313  143.0375  162.7662 N.ar    1  UNL1       -0.2356
     31 N         143.1890  140.8869  162.7874 N.pl3   1  UNL1       -0.3184
     32 C         144.4577  140.1813  163.1647 C.3     1  UNL1        0.0885
     33 C         145.5375  140.9205  163.8979 C.3     1  UNL1        0.0260
     34 C         145.3486  142.3653  164.2538 C.3     1  UNL1        0.0309
     35 H         142.4802  140.4018  162.3062 H       1  UNL1        0.1482
@<TRIPOS>UNITY_ATOM_ATTR
20 1
charge -1
@<TRIPOS>BOND
     1    20    21   ar
     2    21    22   ar
     3    21    19    1
     4     7    19    1
     5     7     6    1
     6     6     1    1
     7     1     2    1
     8     2     3    1
     9     3     4    1
    10     4    23    1
    11    23    24    1
    12    24    25    1
    13    25    26   ar
    14    26    27   ar
    15    27    28   ar
    16    28    29   ar
    17    29    30   ar
    18    29    31    1
    19    31    32    1
    20    32    33    1
    21    33    34    1
    22     4     5    1
    23     7     8    1
    24     8     9   ar
    25     9    10   ar
    26    10    11   ar
    27    11    12   ar
    28    12    14    1
    29    14    15   ar
    30    15    16   ar
    31    16    17   ar
    32    17    18   ar
    33    12    13   ar
    34     5     1    1
    35    13     8   ar
    36    30    25   ar
    37    18    14   ar
    38    34    28    1
    39    31    35    1
@<TRIPOS>MOLECULE
*****
 35 39 0 0 0
SMALL
GASTEIGER

@<TRIPOS>ATOM
      1 N         141.8711  144.1761  163.8308 N.3     1  UNL1       -0.2724
      2 C         142.4905  144.4995  162.5034 C.3     1  UNL1        0.0721
      3 C         143.8251  143.8180  162.4363 C.3     1  UNL1        0.0187
      4 C         144.0306  143.0735  163.7222 C.3     1  UNL1        0.0178
      5 C         142.8230  143.2948  164.5840 C.3     1  UNL1        0.0721
      6 C         140.5347  144.6508  164.3192 C.3     1  UNL1        0.0768
      7 C         139.4357  143.6626  164.5756 C.3     1  UNL1        0.0439
      8 C         139.6078  142.6050  165.6254 C.ar    1  UNL1       -0.0193
      9 C         139.0451  141.2320  165.4062 C.ar    1  UNL1       -0.0041
     10 C         139.2172  140.1745  166.4560 C.ar    1  UNL1        0.0012
     11 C         139.9521  140.4901  167.7251 C.ar    1  UNL1        0.0192
     12 C         140.5149  141.8632  167.9443 C.ar    1  UNL1        0.0843
     13 C         140.3427  142.9206  166.8944 C.ar    1  UNL1        0.0150
     14 N         141.2498  142.1787  169.2133 N.ar    1  UNL1       -0.2079
     15 C         140.7633  141.9044  170.6054 C.ar    1  UNL1        0.2016
     16 N         141.8130  142.3801  171.5654 N.ar    1  UNL1       -0.2004
     17 C         142.9483  142.9485  170.7666 C.ar    1  UNL1        0.2214
     18 N         142.6001  142.8240  169.3128 N.ar    1  UNL1       -0.1409
     19 C         138.1646  143.7319  163.7822 C.3     1  UNL1        0.0474
     20 O         137.3611  141.8727  162.1550 O.co2   1  UNL1       -0.5492
     21 C         138.1097  143.1491  162.4012 C.2     1  UNL1        0.0507
     22 O         138.8034  143.8426  161.2663 O.co2   1  UNL1       -0.5492
     23 C         145.2326  142.2519  164.0828 C.3     1  UNL1        0.0077
     24 C         145.2609  140.7858  163.7674 C.3     1  UNL1        0.0459
     25 C         144.0320  139.9504  163.9729 C.ar    1  UNL1        0.0603
     26 C         143.8677  139.1559  165.2345 C.ar    1  UNL1        0.0145
     27 C         142.6389  138.3206  165.4401 C.ar    1  UNL1       -0.0003
     28 C         141.5744  138.2798  164.3840 C.ar    1  UNL1        0.0092
     29 C         141.7387  139.0744  163.1224 C.ar    1  UNL1        0.1240
     30 N         142.9676  139.9097  162.9169 N.ar    1  UNL1       -0.2356
     31 N         140.6743  139.0337  162.0663 N.pl3   1  UNL1       -0.3184
     32 C         139.4455  138.1984  162.2719 C.3     1  UNL1        0.0885
     33 C         139.2811  137.4038  163.5335 C.3     1  UNL1        0.0260
     34 C         140.3456  137.4445  164.5895 C.3     1  UNL1        0.0309
     35 H         140.7822  139.5552  161.2383 H       1  UNL1        0.1482
@<TRIPOS>UNITY_ATOM_ATTR
20 1
charge -1
@<TRIPOS>BOND
     1    20    21   ar
     2    21    22   ar
     3    21    19    1
     4     7    19    1
     5     7     6    1
     6     6     1    1
     7     1     2    1
     8     2     3    1
     9     3     4    1
    10     4    23    1
    11    23    24    1
    12    24    25    1
    13    25    26   ar
    14    26    27   ar
    15    27    28   ar
    16    28    29   ar
    17    29    30   ar
    18    29    31    1
    19    31    32    1
    20    32    33    1
    21    33    34    1
    22     4     5    1
    23     7     8    1
    24     8     9   ar
    25     9    10   ar
    26    10    11   ar
    27    11    12   ar
    28    12    14    1
    29    14    15   ar
    30    15    16   ar
    31    16    17   ar
    32    17    18   ar
    33    12    13   ar
    34     5     1    1
    35    13     8   ar
    36    30    25   ar
    37    18    14   ar
    38    34    28    1
    39    31    35    1
@<TRIPOS>MOLECULE
*****
 35 39 0 0 0
SMALL
GASTEIGER

@<TRIPOS>ATOM
      1 N         142.5340  143.6010  163.8510 N.3     1  UNL1       -0.2724
      2 C         142.8122  143.4088  162.3895 C.3     1  UNL1        0.0721
      3 C         143.9141  142.3999  162.2562 C.3     1  UNL1        0.0187
      4 C         144.3170  141.9684  163.6351 C.3     1  UNL1        0.0178
      5 C         143.4640  142.7108  164.6208 C.3     1  UNL1        0.0721
      6 C         141.5063  144.5217  164.4393 C.3     1  UNL1        0.0768
      7 C         140.1165  144.0232  164.7038 C.3     1  UNL1        0.0439
      8 C         139.9057  142.8052  165.5538 C.ar    1  UNL1       -0.0193
      9 C         139.2334  141.5950  164.9764 C.ar    1  UNL1       -0.0041
     10 C         139.0226  140.3771  165.8263 C.ar    1  UNL1        0.0012
     11 C         139.4841  140.3695  167.2536 C.ar    1  UNL1        0.0192
     12 C         140.1564  141.5797  167.8309 C.ar    1  UNL1        0.0843
     13 C         140.3672  142.7976  166.9810 C.ar    1  UNL1        0.0150
     14 N         140.6179  141.5721  169.2581 N.ar    1  UNL1       -0.2079
     15 C         140.0528  142.4028  170.3719 C.ar    1  UNL1        0.2016
     16 N         140.8111  142.0765  171.6243 N.ar    1  UNL1       -0.2004
     17 C         141.8449  141.0442  171.2845 C.ar    1  UNL1        0.2214
     18 N         141.7254  140.7324  169.8220 N.ar    1  UNL1       -0.1409
     19 C         138.9376  144.7426  164.1186 C.3     1  UNL1        0.0474
     20 O         139.2748  145.7671  161.7549 O.co2   1  UNL1       -0.5492
     21 C         138.6940  144.7035  162.6390 C.2     1  UNL1        0.0507
     22 O         137.8696  143.6009  162.0435 O.co2   1  UNL1       -0.5492
     23 C         145.3852  140.9700  163.9697 C.3     1  UNL1        0.0077
     24 C         145.0152  139.5470  164.2666 C.3     1  UNL1        0.0459
     25 C         143.6066  139.0779  164.0522 C.ar    1  UNL1        0.0603
     26 C         142.8243  138.5056  165.1969 C.ar    1  UNL1        0.0145
     27 C         141.4158  138.0365  164.9826 C.ar    1  UNL1       -0.0003
     28 C         140.7896  138.1396  163.6234 C.ar    1  UNL1        0.0092
     29 C         141.5719  138.7119  162.4786 C.ar    1  UNL1        0.1240
     30 N         142.9805  139.1810  162.6931 N.ar    1  UNL1       -0.2356
     31 N         140.9458  138.8150  161.1195 N.pl3   1  UNL1       -0.3184
     32 C         139.5373  138.3458  160.9051 C.3     1  UNL1        0.0885
     33 C         138.7549  137.7736  162.0498 C.3     1  UNL1        0.0260
     34 C         139.3811  137.6705  163.4090 C.3     1  UNL1        0.0309
     35 H         141.4593  139.1906  160.3682 H       1  UNL1        0.1482
@<TRIPOS>UNITY_ATOM_ATTR
20 1
charge -1
@<TRIPOS>BOND
     1    20    21   ar
     2    21    22   ar
     3    21    19    1
     4     7    19    1
     5     7     6    1
     6     6     1    1
     7     1     2    1
     8     2     3    1
     9     3     4    1
    10     4    23    1
    11    23    24    1
    12    24    25    1
    13    25    26   ar
    14    26    27   ar
    15    27    28   ar
    16    28    29   ar
    17    29    30   ar
    18    29    31    1
    19    31    32    1
    20    32    33    1
    21    33    34    1
    22     4     5    1
    23     7     8    1
    24     8     9   ar
    25     9    10   ar
    26    10    11   ar
    27    11    12   ar
    28    12    14    1
    29    14    15   ar
    30    15    16   ar
    31    16    17   ar
    32    17    18   ar
    33    12    13   ar
    34     5     1    1
    35    13     8   ar
    36    30    25   ar
    37    18    14   ar
    38    34    28    1
    39    31    35    1
@<TRIPOS>MOLECULE
*****
 35 39 0 0 0
SMALL
GASTEIGER

@<TRIPOS>ATOM
      1 N         142.7754  141.0509  167.0905 N.3     1  UNL1       -0.2724
      2 C         143.2357  142.4327  166.7316 C.3     1  UNL1        0.0721
      3 C         143.9567  142.3546  165.4185 C.3     1  UNL1        0.0187
      4 C         143.9420  140.9246  164.9660 C.3     1  UNL1        0.0178
      5 C         143.2120  140.1189  165.9993 C.3     1  UNL1        0.0721
      6 C         142.0126  140.6683  168.3241 C.3     1  UNL1        0.0768
      7 C         140.5242  140.8490  168.3717 C.3     1  UNL1        0.0439
      8 C         139.7222  140.8030  167.1049 C.ar    1  UNL1       -0.0193
      9 C         138.9586  139.5631  166.7453 C.ar    1  UNL1       -0.0041
     10 C         138.1566  139.5171  165.4785 C.ar    1  UNL1        0.0012
     11 C         138.1183  140.7111  164.5713 C.ar    1  UNL1        0.0192
     12 C         138.8819  141.9511  164.9309 C.ar    1  UNL1        0.0843
     13 C         139.6839  141.9970  166.1977 C.ar    1  UNL1        0.0150
     14 N         138.8436  143.1450  164.0237 N.ar    1  UNL1       -0.2079
     15 C         137.7184  143.5185  163.1049 C.ar    1  UNL1        0.2016
     16 N         138.1031  144.7794  162.3894 N.ar    1  UNL1       -0.2004
     17 C         139.4663  145.1853  162.8660 C.ar    1  UNL1        0.2214
     18 N         139.9239  144.1751  163.8761 N.ar    1  UNL1       -0.1409
     19 C         139.8379  141.0757  169.6860 C.3     1  UNL1        0.0474
     20 O         139.9910  143.6693  169.7040 O.co2   1  UNL1       -0.5492
     21 C         140.0518  142.3593  170.4323 C.2     1  UNL1        0.0507
     22 O         140.3264  142.3328  171.9067 O.co2   1  UNL1       -0.5492
     23 C         144.5506  140.3936  163.7020 C.3     1  UNL1        0.0077
     24 C         144.0868  140.9093  162.3721 C.3     1  UNL1        0.0459
     25 C         142.6354  140.8299  162.0014 C.ar    1  UNL1        0.0603
     26 C         141.9521  142.0158  161.3877 C.ar    1  UNL1        0.0145
     27 C         140.5008  141.9363  161.0171 C.ar    1  UNL1       -0.0003
     28 C         139.7328  140.6709  161.2602 C.ar    1  UNL1        0.0092
     29 C         140.4162  139.4850  161.8739 C.ar    1  UNL1        0.1240
     30 N         141.8675  139.5645  162.2445 N.ar    1  UNL1       -0.2356
     31 N         139.6482  138.2197  162.1169 N.pl3   1  UNL1       -0.3184
     32 C         138.1969  138.1402  161.7463 C.3     1  UNL1        0.0885
     33 C         137.5136  139.3262  161.1326 C.3     1  UNL1        0.0260
     34 C         138.2815  140.5915  160.8895 C.3     1  UNL1        0.0309
     35 H         140.0967  137.4413  162.5197 H       1  UNL1        0.1482
@<TRIPOS>UNITY_ATOM_ATTR
20 1
charge -1
@<TRIPOS>BOND
     1    20    21   ar
     2    21    22   ar
     3    21    19    1
     4     7    19    1
     5     7     6    1
     6     6     1    1
     7     1     2    1
     8     2     3    1
     9     3     4    1
    10     4    23    1
    11    23    24    1
    12    24    25    1
    13    25    26   ar
    14    26    27   ar
    15    27    28   ar
    16    28    29   ar
    17    29    30   ar
    18    29    31    1
    19    31    32    1
    20    32    33    1
    21    33    34    1
    22     4     5    1
    23     7     8    1
    24     8     9   ar
    25     9    10   ar
    26    10    11   ar
    27    11    12   ar
    28    12    14    1
    29    14    15   ar
    30    15    16   ar
    31    16    17   ar
    32    17    18   ar
    33    12    13   ar
    34     5     1    1
    35    13     8   ar
    36    30    25   ar
    37    18    14   ar
    38    34    28    1
    39    31    35    1
@<TRIPOS>MOLECULE
*****
 35 39 0 0 0
SMALL
GASTEIGER

@<TRIPOS>ATOM
      1 N         142.4821  144.1459  163.8831 N.3     1  UNL1       -0.2724
      2 C         142.4272  144.6164  162.4598 C.3     1  UNL1        0.0721
      3 C         141.0038  144.9671  162.1421 C.3     1  UNL1        0.0187
      4 C         140.1790  144.7134  163.3690 C.3     1  UNL1        0.0178
      5 C         141.0926  144.2058  164.4449 C.3     1  UNL1        0.0721
      6 C         143.7107  143.6946  164.6158 C.3     1  UNL1        0.0768
      7 C         144.1915  142.2808  164.4743 C.3     1  UNL1        0.0439
      8 C         143.5865  141.1953  165.3144 C.ar    1  UNL1       -0.0193
      9 C         143.9658  139.7636  165.0768 C.ar    1  UNL1       -0.0041
     10 C         143.3607  138.6781  165.9168 C.ar    1  UNL1        0.0012
     11 C         142.3765  139.0243  166.9945 C.ar    1  UNL1        0.0192
     12 C         141.9972  140.4560  167.2321 C.ar    1  UNL1        0.0843
     13 C         142.6022  141.5414  166.3920 C.ar    1  UNL1        0.0150
     14 N         141.0129  140.8022  168.3098 N.ar    1  UNL1       -0.2079
     15 C         140.9193  142.1146  169.0299 C.ar    1  UNL1        0.2016
     16 N         139.7980  142.0203  170.0217 N.ar    1  UNL1       -0.2004
     17 C         139.1985  140.6495  169.9146 C.ar    1  UNL1        0.2214
     18 N         139.9495  139.8966  168.8565 N.ar    1  UNL1       -0.1409
     19 C         145.2773  141.9526  163.4928 C.3     1  UNL1        0.0474
     20 O         144.4806  140.2865  161.6653 O.co2   1  UNL1       -0.5492
     21 C         144.9322  141.6607  162.0625 C.2     1  UNL1        0.0507
     22 O         145.0388  142.7430  161.0294 O.co2   1  UNL1       -0.5492
     23 C         138.7002  144.9293  163.4973 C.3     1  UNL1        0.0077
     24 C         137.7434  143.9157  162.9431 C.3     1  UNL1        0.0459
     25 C         138.0244  142.4512  163.1062 C.ar    1  UNL1        0.0603
     26 C         138.3305  141.6078  161.9041 C.ar    1  UNL1        0.0145
     27 C         138.6115  140.1435  162.0672 C.ar    1  UNL1       -0.0003
     28 C         138.5865  139.5225  163.4324 C.ar    1  UNL1        0.0092
     29 C         138.2805  140.3659  164.6345 C.ar    1  UNL1        0.1240
     30 N         137.9995  141.8303  164.4714 N.ar    1  UNL1       -0.2356
     31 N         138.2555  139.7449  165.9997 N.pl3   1  UNL1       -0.3184
     32 C         138.5365  138.2806  166.1628 C.3     1  UNL1        0.0885
     33 C         138.8425  137.4372  164.9607 C.3     1  UNL1        0.0260
     34 C         138.8675  138.0581  163.5955 C.3     1  UNL1        0.0309
     35 H         138.0547  140.2985  166.7887 H       1  UNL1        0.1482
@<TRIPOS>UNITY_ATOM_ATTR
20 1
charge -1
@<TRIPOS>BOND
     1    20    21   ar
     2    21    22   ar
     3    21    19    1
     4     7    19    1
     5     7     6    1
     6     6     1    1
     7     1     2    1
     8     2     3    1
     9     3     4    1
    10     4    23    1
    11    23    24    1
    12    24    25    1
    13    25    26   ar
    14    26    27   ar
    15    27    28   ar
    16    28    29   ar
    17    29    30   ar
    18    29    31    1
    19    31    32    1
    20    32    33    1
    21    33    34    1
    22     4     5    1
    23     7     8    1
    24     8     9   ar
    25     9    10   ar
    26    10    11   ar
    27    11    12   ar
    28    12    14    1
    29    14    15   ar
    30    15    16   ar
    31    16    17   ar
    32    17    18   ar
    33    12    13   ar
    34     5     1    1
    35    13     8   ar
    36    30    25   ar
    37    18    14   ar
    38    34    28    1
    39    31    35    1
@<TRIPOS>MOLECULE
*****
 35 39 0 0 0
SMALL
GASTEIGER

@<TRIPOS>ATOM
      1 N         138.6403  139.0422  165.4501 N.3     1  UNL1       -0.2724
      2 C         138.8643  137.5595  165.4111 C.3     1  UNL1        0.0721
      3 C         138.9663  137.1437  163.9736 C.3     1  UNL1        0.0187
      4 C         138.8053  138.3693  163.1240 C.3     1  UNL1        0.0178
      5 C         138.6038  139.5427  164.0365 C.3     1  UNL1        0.0721
      6 C         138.4808  139.8777  166.6856 C.3     1  UNL1        0.0768
      7 C         139.6928  140.3745  167.4166 C.3     1  UNL1        0.0439
      8 C         140.6821  141.2574  166.7152 C.ar    1  UNL1       -0.0193
      9 C         142.1335  141.2033  167.0903 C.ar    1  UNL1       -0.0041
     10 C         143.1227  142.0862  166.3889 C.ar    1  UNL1        0.0012
     11 C         142.6607  143.0231  165.3125 C.ar    1  UNL1        0.0192
     12 C         141.2093  143.0773  164.9375 C.ar    1  UNL1        0.0843
     13 C         140.2201  142.1944  165.6389 C.ar    1  UNL1        0.0150
     14 N         140.7473  144.0142  163.8611 N.ar    1  UNL1       -0.2079
     15 C         139.4713  144.8028  163.8666 C.ar    1  UNL1        0.2016
     16 N         139.4155  145.6031  162.5992 N.ar    1  UNL1       -0.2004
     17 C         140.6570  145.3091  161.8103 C.ar    1  UNL1        0.2214
     18 N         141.4801  144.3271  162.5903 N.ar    1  UNL1       -0.1409
     19 C         139.9154  139.9886  168.8489 C.3     1  UNL1        0.0474
     20 O         139.2874  141.9420  170.4426 O.co2   1  UNL1       -0.5492
     21 C         139.0371  140.5569  169.9240 C.2     1  UNL1        0.0507
     22 O         137.9088  139.7401  170.4804 O.co2   1  UNL1       -0.5492
     23 C         138.8397  138.4138  161.6251 C.3     1  UNL1        0.0077
     24 C         140.1554  138.4192  160.9049 C.3     1  UNL1        0.0459
     25 C         141.3875  138.9214  161.5977 C.ar    1  UNL1        0.0603
     26 C         142.1313  138.0285  162.5461 C.ar    1  UNL1        0.0145
     27 C         143.3633  138.5306  163.2388 C.ar    1  UNL1       -0.0003
     28 C         143.8517  139.9257  162.9831 C.ar    1  UNL1        0.0092
     29 C         143.1079  140.8186  162.0346 C.ar    1  UNL1        0.1240
     30 N         141.8758  140.3164  161.3419 N.ar    1  UNL1       -0.2356
     31 N         143.5962  142.2136  161.7789 N.pl3   1  UNL1       -0.3184
     32 C         144.8283  142.7157  162.4716 C.3     1  UNL1        0.0885
     33 C         145.5720  141.8228  163.4201 C.3     1  UNL1        0.0260
     34 C         145.0837  140.4278  163.6758 C.3     1  UNL1        0.0309
     35 H         143.1081  142.7997  161.1564 H       1  UNL1        0.1482
@<TRIPOS>UNITY_ATOM_ATTR
20 1
charge -1
@<TRIPOS>BOND
     1    20    21   ar
     2    21    22   ar
     3    21    19    1
     4     7    19    1
     5     7     6    1
     6     6     1    1
     7     1     2    1
     8     2     3    1
     9     3     4    1
    10     4    23    1
    11    23    24    1
    12    24    25    1
    13    25    26   ar
    14    26    27   ar
    15    27    28   ar
    16    28    29   ar
    17    29    30   ar
    18    29    31    1
    19    31    32    1
    20    32    33    1
    21    33    34    1
    22     4     5    1
    23     7     8    1
    24     8     9   ar
    25     9    10   ar
    26    10    11   ar
    27    11    12   ar
    28    12    14    1
    29    14    15   ar
    30    15    16   ar
    31    16    17   ar
    32    17    18   ar
    33    12    13   ar
    34     5     1    1
    35    13     8   ar
    36    30    25   ar
    37    18    14   ar
    38    34    28    1
    39    31    35    1
