@<TRIPOS>MOLECULE
*****
 25 27 0 0 0
SMALL
GASTEIGER

@<TRIPOS>ATOM
      1 C         141.7141  141.6325  169.1345 C.ar    1  UNL1        0.0395
      2 C         140.3495  141.4542  169.7312 C.ar    1  UNL1        0.0063
      3 C         139.3438  140.5719  169.0528 C.ar    1  UNL1        0.0376
      4 C         139.7027  139.8681  167.7777 C.ar    1  UNL1        0.1453
      5 C         141.0673  140.0465  167.1810 C.ar    1  UNL1        0.0376
      6 C         142.0730  140.9287  167.8594 C.ar    1  UNL1        0.0063
      7 N         144.8155  143.5591  170.4517 N.ar    1  UNL1       -0.1509
      8 N         143.7194  144.1858  171.2617 N.ar    1  UNL1       -0.0451
      9 N         142.4243  143.5404  170.8668 N.ar    1  UNL1       -0.1077
     10 C         142.7199  142.5148  169.8128 C.ar    1  UNL1        0.2058
     11 N         144.1977  142.5264  169.5563 N.ar    1  UNL1       -0.1297
     12 C         146.2734  143.9045  170.5245 C.3     1  UNL1        0.1517
     13 C         146.8444  144.4862  171.7836 C.3     1  UNL1        0.0342
     14 C         146.7622  145.9632  172.0321 C.3     1  UNL1        0.0438
     15 O         148.9713  146.2438  173.3704 O.co2   1  UNL1       -0.5492
     16 C         147.5221  146.5756  173.1712 C.2     1  UNL1        0.0504
     17 O         146.8328  147.5198  174.1110 O.co2   1  UNL1       -0.5492
     18 O         138.6969  138.9858  167.0993 O.3     1  UNL1       -0.4535
     19 C         138.5962  138.9762  165.6028 C.ar    1  UNL1        0.1454
     20 C         138.9558  137.7389  164.8348 C.ar    1  UNL1        0.0384
     21 C         138.8550  137.7294  163.3382 C.ar    1  UNL1        0.0145
     22 C         138.3946  138.9571  162.6096 C.ar    1  UNL1        0.0579
     23 CL        138.2939  138.9475  161.1131 Cl      1  UNL1       -0.0822
     24 C         138.0350  140.1943  163.3776 C.ar    1  UNL1        0.0145
     25 C         138.1358  140.2039  164.8742 C.ar    1  UNL1        0.0384
@<TRIPOS>UNITY_ATOM_ATTR
15 1
charge -1
@<TRIPOS>BOND
     1    15    16   ar
     2    16    17   ar
     3    16    14    1
     4    14    13    1
     5    13    12    1
     6    12     7    1
     7     7     8   ar
     8     8     9   ar
     9     9    10   ar
    10    10     1    1
    11     1     2   ar
    12     2     3   ar
    13     3     4   ar
    14     4    18    1
    15    18    19    1
    16    19    20   ar
    17    20    21   ar
    18    21    22   ar
    19    22    23    1
    20    22    24   ar
    21    24    25   ar
    22     4     5   ar
    23     5     6   ar
    24    10    11   ar
    25    11     7   ar
    26     6     1   ar
    27    25    19   ar
@<TRIPOS>MOLECULE
*****
 25 27 0 0 0
SMALL
GASTEIGER

@<TRIPOS>ATOM
      1 C         139.1107  139.4560  165.5988 C.ar    1  UNL1        0.0395
      2 C         139.3222  138.1612  164.8716 C.ar    1  UNL1        0.0063
      3 C         138.8095  137.9948  163.4718 C.ar    1  UNL1        0.0376
      4 C         138.0854  139.1232  162.7992 C.ar    1  UNL1        0.1453
      5 C         137.8740  140.4180  163.5264 C.ar    1  UNL1        0.0376
      6 C         138.3866  140.5843  164.9262 C.ar    1  UNL1        0.0063
      7 N         141.1086  139.9639  168.8876 N.ar    1  UNL1       -0.1509
      8 N         139.7159  139.7931  169.4179 N.ar    1  UNL1       -0.0451
      9 N         138.7980  139.5820  168.2505 N.ar    1  UNL1       -0.1077
     10 C         139.6234  139.6224  166.9986 C.ar    1  UNL1        0.2058
     11 N         141.0514  139.8584  167.3924 N.ar    1  UNL1       -0.1297
     12 C         142.3419  140.1989  169.7084 C.3     1  UNL1        0.1517
     13 C         142.8166  141.5984  169.9651 C.3     1  UNL1        0.0342
     14 C         141.9300  142.7631  169.6371 C.3     1  UNL1        0.0438
     15 O         140.0044  144.3765  170.2993 O.co2   1  UNL1       -0.5492
     16 C         140.8221  143.1489  170.5717 C.2     1  UNL1        0.0504
     17 O         140.5319  142.3071  171.7788 O.co2   1  UNL1       -0.5492
     18 O         137.5727  138.9568  161.3993 O.3     1  UNL1       -0.4535
     19 C         138.4386  139.3333  160.2338 C.ar    1  UNL1        0.1454
     20 C         139.7179  138.5925  159.9796 C.ar    1  UNL1        0.0384
     21 C         140.5837  138.9690  158.8140 C.ar    1  UNL1        0.0145
     22 C         140.1703  140.0864  157.9027 C.ar    1  UNL1        0.0579
     23 CL        141.0361  140.4629  156.7371 Cl      1  UNL1       -0.0822
     24 C         138.8910  140.8272  158.1569 C.ar    1  UNL1        0.0145
     25 C         138.0252  140.4507  159.3224 C.ar    1  UNL1        0.0384
@<TRIPOS>UNITY_ATOM_ATTR
15 1
charge -1
@<TRIPOS>BOND
     1    15    16   ar
     2    16    17   ar
     3    16    14    1
     4    14    13    1
     5    13    12    1
     6    12     7    1
     7     7     8   ar
     8     8     9   ar
     9     9    10   ar
    10    10     1    1
    11     1     2   ar
    12     2     3   ar
    13     3     4   ar
    14     4    18    1
    15    18    19    1
    16    19    20   ar
    17    20    21   ar
    18    21    22   ar
    19    22    23    1
    20    22    24   ar
    21    24    25   ar
    22     4     5   ar
    23     5     6   ar
    24    10    11   ar
    25    11     7   ar
    26     6     1   ar
    27    25    19   ar
@<TRIPOS>MOLECULE
*****
 25 27 0 0 0
SMALL
GASTEIGER

@<TRIPOS>ATOM
      1 C         143.2007  138.6659  162.7860 C.ar    1  UNL1        0.0395
      2 C         144.3879  139.2604  163.4840 C.ar    1  UNL1        0.0063
      3 C         144.4667  139.2366  164.9817 C.ar    1  UNL1        0.0376
      4 C         143.3584  138.6184  165.7814 C.ar    1  UNL1        0.1453
      5 C         142.1713  138.0239  165.0834 C.ar    1  UNL1        0.0376
      6 C         142.0924  138.0477  163.5857 C.ar    1  UNL1        0.0063
      7 N         142.2876  138.4955  159.0173 N.ar    1  UNL1       -0.1509
      8 N         143.7133  138.9569  158.9495 N.ar    1  UNL1       -0.0451
      9 N         144.2288  139.0769  160.3530 N.ar    1  UNL1       -0.1077
     10 C         143.1218  138.6897  161.2882 C.ar    1  UNL1        0.2058
     11 N         141.9221  138.3304  160.4627 N.ar    1  UNL1       -0.1297
     12 C         141.3858  138.2435  157.8455 C.3     1  UNL1        0.1517
     13 C         141.6729  137.1077  156.9087 C.3     1  UNL1        0.0342
     14 C         142.4859  137.3440  155.6705 C.3     1  UNL1        0.0438
     15 O         144.1516  135.3677  155.4063 O.co2   1  UNL1       -0.5492
     16 C         143.8943  136.8341  155.5894 C.2     1  UNL1        0.0504
     17 O         145.0452  137.7905  155.6913 O.co2   1  UNL1       -0.5492
     18 O         143.4373  138.5946  167.2792 O.3     1  UNL1       -0.4535
     19 C         142.5813  139.5217  168.0901 C.ar    1  UNL1        0.1454
     20 C         142.0785  140.7993  167.4861 C.ar    1  UNL1        0.0384
     21 C         141.2224  141.7264  168.2971 C.ar    1  UNL1        0.0145
     22 C         140.8691  141.3759  169.7121 C.ar    1  UNL1        0.0579
     23 CL        140.0131  142.3029  170.5230 Cl      1  UNL1       -0.0822
     24 C         141.3719  140.0982  170.3161 C.ar    1  UNL1        0.0145
     25 C         142.2279  139.1712  169.5052 C.ar    1  UNL1        0.0384
@<TRIPOS>UNITY_ATOM_ATTR
15 1
charge -1
@<TRIPOS>BOND
     1    15    16   ar
     2    16    17   ar
     3    16    14    1
     4    14    13    1
     5    13    12    1
     6    12     7    1
     7     7     8   ar
     8     8     9   ar
     9     9    10   ar
    10    10     1    1
    11     1     2   ar
    12     2     3   ar
    13     3     4   ar
    14     4    18    1
    15    18    19    1
    16    19    20   ar
    17    20    21   ar
    18    21    22   ar
    19    22    23    1
    20    22    24   ar
    21    24    25   ar
    22     4     5   ar
    23     5     6   ar
    24    10    11   ar
    25    11     7   ar
    26     6     1   ar
    27    25    19   ar
@<TRIPOS>MOLECULE
*****
 25 27 0 0 0
SMALL
GASTEIGER

@<TRIPOS>ATOM
      1 C         138.8813  139.2363  165.7347 C.ar    1  UNL1        0.0395
      2 C         139.4386  137.9271  165.2598 C.ar    1  UNL1        0.0063
      3 C         139.3419  137.5523  163.8107 C.ar    1  UNL1        0.0376
      4 C         138.6879  138.4866  162.8363 C.ar    1  UNL1        0.1453
      5 C         138.1306  139.7958  163.3112 C.ar    1  UNL1        0.0376
      6 C         138.2273  140.1706  164.7603 C.ar    1  UNL1        0.0063
      7 N         139.6984  140.6473  169.2570 N.ar    1  UNL1       -0.1509
      8 N         138.5549  139.7286  169.5709 N.ar    1  UNL1       -0.0451
      9 N         138.1097  139.0882  168.2897 N.ar    1  UNL1       -0.1077
     10 C         138.9780  139.6111  167.1839 C.ar    1  UNL1        0.2058
     11 N         139.9598  140.5747  167.7818 N.ar    1  UNL1       -0.1297
     12 C         140.4487  141.4905  170.2449 C.3     1  UNL1        0.1517
     13 C         141.7152  140.9752  170.8618 C.3     1  UNL1        0.0342
     14 C         142.9585  140.8540  170.0315 C.3     1  UNL1        0.0438
     15 O         144.6008  142.8665  169.9804 O.co2   1  UNL1       -0.5492
     16 C         143.5146  142.0595  169.3332 C.2     1  UNL1        0.0504
     17 O         142.9845  142.4579  167.9879 O.co2   1  UNL1       -0.5492
     18 O         138.5912  138.1118  161.3871 O.3     1  UNL1       -0.4535
     19 C         139.6877  138.4957  160.4383 C.ar    1  UNL1        0.1454
     20 C         141.1196  138.2381  160.8032 C.ar    1  UNL1        0.0384
     21 C         142.2162  138.6221  159.8544 C.ar    1  UNL1        0.0145
     22 C         141.8807  139.2637  158.5407 C.ar    1  UNL1        0.0579
     23 CL        142.9772  139.6477  157.5920 Cl      1  UNL1       -0.0822
     24 C         140.4488  139.5214  158.1758 C.ar    1  UNL1        0.0145
     25 C         139.3523  139.1374  159.1246 C.ar    1  UNL1        0.0384
@<TRIPOS>UNITY_ATOM_ATTR
15 1
charge -1
@<TRIPOS>BOND
     1    15    16   ar
     2    16    17   ar
     3    16    14    1
     4    14    13    1
     5    13    12    1
     6    12     7    1
     7     7     8   ar
     8     8     9   ar
     9     9    10   ar
    10    10     1    1
    11     1     2   ar
    12     2     3   ar
    13     3     4   ar
    14     4    18    1
    15    18    19    1
    16    19    20   ar
    17    20    21   ar
    18    21    22   ar
    19    22    23    1
    20    22    24   ar
    21    24    25   ar
    22     4     5   ar
    23     5     6   ar
    24    10    11   ar
    25    11     7   ar
    26     6     1   ar
    27    25    19   ar
@<TRIPOS>MOLECULE
*****
 25 27 0 0 0
SMALL
GASTEIGER

@<TRIPOS>ATOM
      1 C         143.3614  138.6839  162.8232 C.ar    1  UNL1        0.0395
      2 C         142.2328  138.0597  163.5892 C.ar    1  UNL1        0.0063
      3 C         142.2469  138.0726  165.0890 C.ar    1  UNL1        0.0376
      4 C         143.3896  138.7095  165.8229 C.ar    1  UNL1        0.1453
      5 C         144.5182  139.3337  165.0569 C.ar    1  UNL1        0.0376
      6 C         144.5041  139.3209  163.5571 C.ar    1  UNL1        0.0063
      7 N         142.8777  138.0500  159.0245 N.ar    1  UNL1       -0.1509
      8 N         143.7737  139.2529  159.0058 N.ar    1  UNL1       -0.0451
      9 N         144.0638  139.6368  160.4266 N.ar    1  UNL1       -0.1077
     10 C         143.3473  138.6711  161.3233 C.ar    1  UNL1        0.2058
     11 N         142.6143  137.6904  160.4567 N.ar    1  UNL1       -0.1297
     12 C         142.3398  137.3326  157.8220 C.3     1  UNL1        0.1517
     13 C         143.1762  137.2149  156.5825 C.3     1  UNL1        0.0342
     14 C         143.6772  135.8719  156.1404 C.3     1  UNL1        0.0438
     15 O         141.9504  133.9350  156.0122 O.co2   1  UNL1       -0.5492
     16 C         143.0818  134.6221  156.7178 C.2     1  UNL1        0.0504
     17 O         143.6178  134.0593  158.0006 O.co2   1  UNL1       -0.5492
     18 O         143.4037  138.7223  167.3228 O.3     1  UNL1       -0.4535
     19 C         142.4812  139.6361  168.0737 C.ar    1  UNL1        0.1454
     20 C         142.0411  139.2813  169.4631 C.ar    1  UNL1        0.0384
     21 C         141.1185  140.1952  170.2140 C.ar    1  UNL1        0.0145
     22 C         140.6362  141.4639  169.5756 C.ar    1  UNL1        0.0579
     23 CL        139.7137  142.3777  170.3265 Cl      1  UNL1       -0.0822
     24 C         141.0763  141.8188  168.1862 C.ar    1  UNL1        0.0145
     25 C         141.9988  140.9049  167.4353 C.ar    1  UNL1        0.0384
@<TRIPOS>UNITY_ATOM_ATTR
15 1
charge -1
@<TRIPOS>BOND
     1    15    16   ar
     2    16    17   ar
     3    16    14    1
     4    14    13    1
     5    13    12    1
     6    12     7    1
     7     7     8   ar
     8     8     9   ar
     9     9    10   ar
    10    10     1    1
    11     1     2   ar
    12     2     3   ar
    13     3     4   ar
    14     4    18    1
    15    18    19    1
    16    19    20   ar
    17    20    21   ar
    18    21    22   ar
    19    22    23    1
    20    22    24   ar
    21    24    25   ar
    22     4     5   ar
    23     5     6   ar
    24    10    11   ar
    25    11     7   ar
    26     6     1   ar
    27    25    19   ar
@<TRIPOS>MOLECULE
*****
 25 27 0 0 0
SMALL
GASTEIGER

@<TRIPOS>ATOM
      1 C         138.9831  138.8162  164.4486 C.ar    1  UNL1        0.0395
      2 C         139.8856  137.7189  163.9678 C.ar    1  UNL1        0.0063
      3 C         140.1325  137.5404  162.4991 C.ar    1  UNL1        0.0376
      4 C         139.4769  138.4592  161.5112 C.ar    1  UNL1        0.1453
      5 C         138.5744  139.5566  161.9920 C.ar    1  UNL1        0.0376
      6 C         138.3275  139.7351  163.4607 C.ar    1  UNL1        0.0063
      7 N         138.9673  139.7013  168.2278 N.ar    1  UNL1       -0.1509
      8 N         137.7450  138.8377  168.1273 N.ar    1  UNL1       -0.0451
      9 N         137.6021  138.4010  166.6994 N.ar    1  UNL1       -0.1077
     10 C         138.7362  138.9948  165.9174 C.ar    1  UNL1        0.2058
     11 N         139.5799  139.7984  166.8620 N.ar    1  UNL1       -0.1297
     12 C         139.4860  140.3534  169.4751 C.3     1  UNL1        0.1517
     13 C         140.7715  139.8829  170.0884 C.3     1  UNL1        0.0342
     14 C         141.8952  140.8514  170.3103 C.3     1  UNL1        0.0438
     15 O         142.4459  143.3541  170.7383 O.co2   1  UNL1       -0.5492
     16 C         141.6499  142.1251  171.0637 C.2     1  UNL1        0.0504
     17 O         140.6086  142.1697  172.1423 O.co2   1  UNL1       -0.5492
     18 O         139.7238  138.2806  160.0424 O.3     1  UNL1       -0.4535
     19 C         140.9462  138.8765  159.4095 C.ar    1  UNL1        0.1454
     20 C         142.1272  139.2435  160.2584 C.ar    1  UNL1        0.0384
     21 C         143.3496  139.8394  159.6255 C.ar    1  UNL1        0.0145
     22 C         143.3910  140.0684  158.1437 C.ar    1  UNL1        0.0579
     23 CL        144.6134  140.6643  157.5108 Cl      1  UNL1       -0.0822
     24 C         142.2101  139.7014  157.2947 C.ar    1  UNL1        0.0145
     25 C         140.9877  139.1055  157.9276 C.ar    1  UNL1        0.0384
@<TRIPOS>UNITY_ATOM_ATTR
15 1
charge -1
@<TRIPOS>BOND
     1    15    16   ar
     2    16    17   ar
     3    16    14    1
     4    14    13    1
     5    13    12    1
     6    12     7    1
     7     7     8   ar
     8     8     9   ar
     9     9    10   ar
    10    10     1    1
    11     1     2   ar
    12     2     3   ar
    13     3     4   ar
    14     4    18    1
    15    18    19    1
    16    19    20   ar
    17    20    21   ar
    18    21    22   ar
    19    22    23    1
    20    22    24   ar
    21    24    25   ar
    22     4     5   ar
    23     5     6   ar
    24    10    11   ar
    25    11     7   ar
    26     6     1   ar
    27    25    19   ar
@<TRIPOS>MOLECULE
*****
 25 27 0 0 0
SMALL
GASTEIGER

@<TRIPOS>ATOM
      1 C         143.0415  138.5779  162.8194 C.ar    1  UNL1        0.0395
      2 C         141.9689  137.9768  163.6786 C.ar    1  UNL1        0.0063
      3 C         142.1044  137.9985  165.1723 C.ar    1  UNL1        0.0376
      4 C         143.3125  138.6212  165.8068 C.ar    1  UNL1        0.1453
      5 C         144.3852  139.2223  164.9476 C.ar    1  UNL1        0.0376
      6 C         144.2496  139.2006  163.4540 C.ar    1  UNL1        0.0063
      7 N         141.9601  138.4055  159.0957 N.ar    1  UNL1       -0.1509
      8 N         143.4353  138.6402  158.9585 N.ar    1  UNL1       -0.0451
      9 N         144.0199  138.7334  160.3367 N.ar    1  UNL1       -0.1077
     10 C         142.9061  138.5562  161.3257 C.ar    1  UNL1        0.2058
     11 N         141.6330  138.3535  160.5587 N.ar    1  UNL1       -0.1297
     12 C         140.9834  138.2499  157.9678 C.3     1  UNL1        0.1517
     13 C         141.4738  137.9023  156.5936 C.3     1  UNL1        0.0342
     14 C         140.9910  136.6528  155.9187 C.3     1  UNL1        0.0438
     15 O         138.4178  136.9714  155.7539 O.co2   1  UNL1       -0.5492
     16 C         139.7354  136.6806  155.0985 C.2     1  UNL1        0.0504
     17 O         139.7973  136.4177  153.6231 O.co2   1  UNL1       -0.5492
     18 O         143.4480  138.6429  167.3006 O.3     1  UNL1       -0.4535
     19 C         142.5988  139.5712  168.1173 C.ar    1  UNL1        0.1454
     20 C         142.1220  140.8655  167.5277 C.ar    1  UNL1        0.0384
     21 C         141.2727  141.7938  168.3445 C.ar    1  UNL1        0.0145
     22 C         140.9005  141.4280  169.7507 C.ar    1  UNL1        0.0579
     23 CL        140.0513  142.3563  170.5674 Cl      1  UNL1       -0.0822
     24 C         141.3773  140.1337  170.3402 C.ar    1  UNL1        0.0145
     25 C         142.2265  139.2054  169.5235 C.ar    1  UNL1        0.0384
@<TRIPOS>UNITY_ATOM_ATTR
15 1
charge -1
@<TRIPOS>BOND
     1    15    16   ar
     2    16    17   ar
     3    16    14    1
     4    14    13    1
     5    13    12    1
     6    12     7    1
     7     7     8   ar
     8     8     9   ar
     9     9    10   ar
    10    10     1    1
    11     1     2   ar
    12     2     3   ar
    13     3     4   ar
    14     4    18    1
    15    18    19    1
    16    19    20   ar
    17    20    21   ar
    18    21    22   ar
    19    22    23    1
    20    22    24   ar
    21    24    25   ar
    22     4     5   ar
    23     5     6   ar
    24    10    11   ar
    25    11     7   ar
    26     6     1   ar
    27    25    19   ar
@<TRIPOS>MOLECULE
*****
 25 27 0 0 0
SMALL
GASTEIGER

@<TRIPOS>ATOM
      1 C         143.3619  142.1478  164.8627 C.ar    1  UNL1        0.0395
      2 C         144.1273  143.2970  164.2767 C.ar    1  UNL1        0.0063
      3 C         144.2491  143.4356  162.7881 C.ar    1  UNL1        0.0376
      4 C         143.6054  142.4251  161.8856 C.ar    1  UNL1        0.1453
      5 C         142.8400  141.2759  162.4716 C.ar    1  UNL1        0.0376
      6 C         142.7182  141.1373  163.9602 C.ar    1  UNL1        0.0063
      7 N         142.6707  141.1566  168.5513 N.ar    1  UNL1       -0.1509
      8 N         143.4346  142.4348  168.7329 N.ar    1  UNL1       -0.0451
      9 N         143.7865  142.9616  167.3732 N.ar    1  UNL1       -0.1077
     10 C         143.2401  142.0091  166.3514 C.ar    1  UNL1        0.2058
     11 N         142.5505  140.8936  167.0794 N.ar    1  UNL1       -0.1297
     12 C         142.1232  140.2932  169.6489 C.3     1  UNL1        0.1517
     13 C         140.6486  140.0310  169.7320 C.3     1  UNL1        0.0342
     14 C         139.6843  141.1789  169.7801 C.3     1  UNL1        0.0438
     15 O         140.0166  143.7539  169.8726 O.co2   1  UNL1       -0.5492
     16 C         140.0301  142.4171  170.5529 C.2     1  UNL1        0.0504
     17 O         140.3895  142.3185  172.0057 O.co2   1  UNL1       -0.5492
     18 O         143.7273  142.5638  160.3969 O.3     1  UNL1       -0.4535
     19 C         142.8243  143.5041  159.6549 C.ar    1  UNL1        0.1454
     20 C         143.0537  143.7699  158.1966 C.ar    1  UNL1        0.0384
     21 C         142.1507  144.7102  157.4546 C.ar    1  UNL1        0.0145
     22 C         141.0184  145.3846  158.1709 C.ar    1  UNL1        0.0579
     23 CL        140.1155  146.3248  157.4289 Cl      1  UNL1       -0.0822
     24 C         140.7891  145.1187  159.6292 C.ar    1  UNL1        0.0145
     25 C         141.6920  144.1785  160.3712 C.ar    1  UNL1        0.0384
@<TRIPOS>UNITY_ATOM_ATTR
15 1
charge -1
@<TRIPOS>BOND
     1    15    16   ar
     2    16    17   ar
     3    16    14    1
     4    14    13    1
     5    13    12    1
     6    12     7    1
     7     7     8   ar
     8     8     9   ar
     9     9    10   ar
    10    10     1    1
    11     1     2   ar
    12     2     3   ar
    13     3     4   ar
    14     4    18    1
    15    18    19    1
    16    19    20   ar
    17    20    21   ar
    18    21    22   ar
    19    22    23    1
    20    22    24   ar
    21    24    25   ar
    22     4     5   ar
    23     5     6   ar
    24    10    11   ar
    25    11     7   ar
    26     6     1   ar
    27    25    19   ar
@<TRIPOS>MOLECULE
*****
 25 27 0 0 0
SMALL
GASTEIGER

@<TRIPOS>ATOM
      1 C         138.5931  139.1224  162.8981 C.ar    1  UNL1        0.0395
      2 C         138.9237  137.8561  163.6310 C.ar    1  UNL1        0.0063
      3 C         138.8768  137.8229  165.1298 C.ar    1  UNL1        0.0376
      4 C         138.4992  139.0560  165.8959 C.ar    1  UNL1        0.1453
      5 C         138.1685  140.3223  165.1631 C.ar    1  UNL1        0.0376
      6 C         138.2154  140.3555  163.6642 C.ar    1  UNL1        0.0063
      7 N         139.2589  138.6934  159.0984 N.ar    1  UNL1       -0.1509
      8 N         138.1655  139.7203  159.0869 N.ar    1  UNL1       -0.0451
      9 N         137.7831  140.0060  160.5089 N.ar    1  UNL1       -0.1077
     10 C         138.6400  139.1556  161.3992 C.ar    1  UNL1        0.2058
     11 N         139.5521  138.3444  160.5274 N.ar    1  UNL1       -0.1297
     12 C         139.9395  138.1167  157.8924 C.3     1  UNL1        0.1517
     13 C         140.8389  138.9773  157.0556 C.3     1  UNL1        0.0342
     14 C         141.8729  139.8428  157.7126 C.3     1  UNL1        0.0438
     15 O         144.0643  138.9940  156.6048 O.co2   1  UNL1       -0.5492
     16 C         143.2877  139.3596  157.8349 C.2     1  UNL1        0.0504
     17 O         143.9258  139.2419  159.1872 O.co2   1  UNL1       -0.5492
     18 O         138.4522  139.0227  167.3948 O.3     1  UNL1       -0.4535
     19 C         139.4168  139.8480  168.1939 C.ar    1  UNL1        0.1454
     20 C         140.7709  140.1699  167.6348 C.ar    1  UNL1        0.0384
     21 C         141.7355  140.9952  168.4339 C.ar    1  UNL1        0.0145
     22 C         141.3459  141.4986  169.7921 C.ar    1  UNL1        0.0579
     23 CL        142.3104  142.3238  170.5912 Cl      1  UNL1       -0.0822
     24 C         139.9917  141.1767  170.3512 C.ar    1  UNL1        0.0145
     25 C         139.0271  140.3514  169.5522 C.ar    1  UNL1        0.0384
@<TRIPOS>UNITY_ATOM_ATTR
15 1
charge -1
@<TRIPOS>BOND
     1    15    16   ar
     2    16    17   ar
     3    16    14    1
     4    14    13    1
     5    13    12    1
     6    12     7    1
     7     7     8   ar
     8     8     9   ar
     9     9    10   ar
    10    10     1    1
    11     1     2   ar
    12     2     3   ar
    13     3     4   ar
    14     4    18    1
    15    18    19    1
    16    19    20   ar
    17    20    21   ar
    18    21    22   ar
    19    22    23    1
    20    22    24   ar
    21    24    25   ar
    22     4     5   ar
    23     5     6   ar
    24    10    11   ar
    25    11     7   ar
    26     6     1   ar
    27    25    19   ar
