@<TRIPOS>MOLECULE
*****
 25 27 0 0 0
SMALL
GASTEIGER

@<TRIPOS>ATOM
      1 N         139.4739  141.6716  164.8120 N.am    1  UNL1       -0.2763
      2 C         139.5153  140.3953  165.5991 C.2     1  UNL1        0.2490
      3 O         138.2430  139.7893  166.1126 O.2     1  UNL1       -0.2699
      4 C         140.8291  139.7251  165.8726 C.ar    1  UNL1        0.0536
      5 C         141.4624  138.8599  164.8236 C.ar    1  UNL1        0.0045
      6 C         142.7762  138.1898  165.0971 C.ar    1  UNL1        0.0001
      7 C         143.4567  138.3848  166.4196 C.ar    1  UNL1        0.0000
      8 C         142.8234  139.2499  167.4685 C.ar    1  UNL1        0.0001
      9 C         141.5096  139.9201  167.1950 C.ar    1  UNL1        0.0044
     10 C         140.8762  140.7853  168.2440 C.ar    1  UNL1        0.0001
     11 C         139.8578  140.2052  169.1801 C.ar    1  UNL1        0.0000
     12 C         139.2245  141.0703  170.2291 C.ar    1  UNL1        0.0000
     13 C         139.6095  142.5157  170.3419 C.ar    1  UNL1        0.0000
     14 C         140.6279  143.0959  169.4058 C.ar    1  UNL1        0.0000
     15 C         141.2612  142.2306  168.3569 C.ar    1  UNL1        0.0000
     16 C         140.7464  142.2776  164.2984 C.3     1  UNL1        0.0927
     17 C         141.6840  143.1514  165.0775 C.3     1  UNL1        0.0383
     18 C         142.8217  143.5300  164.1762 C.3     1  UNL1        0.0704
     19 N         142.5871  142.8902  162.8399 N.3     1  UNL1       -0.2960
     20 C         141.3045  142.1161  162.9155 C.3     1  UNL1        0.0887
     21 H         143.3584  142.2610  162.6172 H       1  UNL1        0.1233
     22 C         138.1602  142.3418  164.5385 C.3     1  UNL1        0.0936
     23 C         138.3832  144.7572  165.4691 C.3     1  UNL1        0.0018
     24 C         138.1050  143.8257  164.3267 C.3     1  UNL1        0.0199
     25 C         137.7716  144.3781  162.9726 C.3     1  UNL1        0.0018
@<TRIPOS>BOND
     1    23    24    1
     2    24    25    1
     3    24    22    1
     4    22     1    1
     5     1     2   am
     6     2     3    2
     7     2     4    1
     8     4     5   ar
     9     5     6   ar
    10     6     7   ar
    11     7     8   ar
    12     8     9   ar
    13     9    10    1
    14    10    11   ar
    15    11    12   ar
    16    12    13   ar
    17    13    14   ar
    18    14    15   ar
    19    16     1    1
    20    16    17    1
    21    17    18    1
    22    18    19    1
    23    19    20    1
    24     9     4   ar
    25    15    10   ar
    26    20    16    1
    27    19    21    1
@<TRIPOS>MOLECULE
*****
 25 27 0 0 0
SMALL
GASTEIGER

@<TRIPOS>ATOM
      1 N         141.1467  140.2809  165.6871 N.am    1  UNL1       -0.2763
      2 C         141.2603  141.6681  166.2464 C.2     1  UNL1        0.2490
      3 O         140.4197  142.0746  167.4203 O.2     1  UNL1       -0.2699
      4 C         142.2146  142.6488  165.6318 C.ar    1  UNL1        0.0536
      5 C         143.6624  142.6329  166.0239 C.ar    1  UNL1        0.0045
      6 C         144.6166  143.6135  165.4092 C.ar    1  UNL1        0.0001
      7 C         144.1231  144.6100  164.4025 C.ar    1  UNL1        0.0000
      8 C         142.6753  144.6259  164.0104 C.ar    1  UNL1        0.0001
      9 C         141.7211  143.6452  164.6251 C.ar    1  UNL1        0.0044
     10 C         140.2733  143.6611  164.2330 C.ar    1  UNL1        0.0001
     11 C         139.2599  144.3052  165.1319 C.ar    1  UNL1        0.0000
     12 C         137.8121  144.3210  164.7399 C.ar    1  UNL1        0.0000
     13 C         137.3777  143.6927  163.4489 C.ar    1  UNL1        0.0000
     14 C         138.3912  143.0486  162.5499 C.ar    1  UNL1        0.0000
     15 C         139.8390  143.0328  162.9420 C.ar    1  UNL1        0.0000
     16 C         141.9874  139.8744  164.5131 C.3     1  UNL1        0.0927
     17 C         141.6143  140.0231  163.0679 C.3     1  UNL1        0.0383
     18 C         142.7451  139.4884  162.2399 C.3     1  UNL1        0.0704
     19 N         143.8170  139.0093  163.1735 N.3     1  UNL1       -0.2960
     20 C         143.3487  139.2479  164.5783 C.3     1  UNL1        0.0887
     21 H         144.6800  139.5259  163.0038 H       1  UNL1        0.1233
     22 C         140.1925  139.3003  166.3016 C.3     1  UNL1        0.0936
     23 C         138.2370  140.2392  164.8716 C.3     1  UNL1        0.0018
     24 C         138.7227  139.4081  166.0220 C.3     1  UNL1        0.0199
     25 C         137.7386  138.6848  166.8928 C.3     1  UNL1        0.0018
@<TRIPOS>BOND
     1    23    24    1
     2    24    25    1
     3    24    22    1
     4    22     1    1
     5     1     2   am
     6     2     3    2
     7     2     4    1
     8     4     5   ar
     9     5     6   ar
    10     6     7   ar
    11     7     8   ar
    12     8     9   ar
    13     9    10    1
    14    10    11   ar
    15    11    12   ar
    16    12    13   ar
    17    13    14   ar
    18    14    15   ar
    19    16     1    1
    20    16    17    1
    21    17    18    1
    22    18    19    1
    23    19    20    1
    24     9     4   ar
    25    15    10   ar
    26    20    16    1
    27    19    21    1
@<TRIPOS>MOLECULE
*****
 25 27 0 0 0
SMALL
GASTEIGER

@<TRIPOS>ATOM
      1 N         141.6006  141.8931  164.5309 N.am    1  UNL1       -0.2763
      2 C         141.6795  140.5933  165.2754 C.2     1  UNL1        0.2490
      3 O         143.0010  139.9039  165.4429 O.2     1  UNL1       -0.2699
      4 C         140.4367  139.9829  165.8525 C.ar    1  UNL1        0.0536
      5 C         139.5358  139.1543  164.9855 C.ar    1  UNL1        0.0045
      6 C         138.2931  138.5439  165.5626 C.ar    1  UNL1        0.0001
      7 C         137.9512  138.7622  167.0067 C.ar    1  UNL1        0.0000
      8 C         138.8521  139.5908  167.8737 C.ar    1  UNL1        0.0001
      9 C         140.0948  140.2012  167.2966 C.ar    1  UNL1        0.0044
     10 C         140.9957  141.0298  168.1637 C.ar    1  UNL1        0.0001
     11 C         142.2876  140.4568  168.6665 C.ar    1  UNL1        0.0000
     12 C         143.1885  141.2854  169.5335 C.ar    1  UNL1        0.0000
     13 C         142.7976  142.6871  169.8977 C.ar    1  UNL1        0.0000
     14 C         141.5058  143.2601  169.3949 C.ar    1  UNL1        0.0000
     15 C         140.6048  142.4314  168.5279 C.ar    1  UNL1        0.0000
     16 C         140.2789  142.5825  164.3635 C.3     1  UNL1        0.0927
     17 C         139.6714  143.5679  165.3173 C.3     1  UNL1        0.0383
     18 C         138.3497  144.0019  164.7561 C.3     1  UNL1        0.0704
     19 N         138.1404  143.2847  163.4554 N.3     1  UNL1       -0.2960
     20 C         139.3327  142.4075  163.2127 C.3     1  UNL1        0.0887
     21 H         138.0487  143.9615  162.6978 H       1  UNL1        0.1233
     22 C         142.8433  142.5035  163.9539 C.3     1  UNL1        0.0936
     23 C         143.6380  144.9681  164.1638 C.3     1  UNL1        0.0018
     24 C         143.5747  143.5726  164.7102 C.3     1  UNL1        0.0199
     25 C         144.2427  143.2461  166.0130 C.3     1  UNL1        0.0018
@<TRIPOS>BOND
     1    23    24    1
     2    24    25    1
     3    24    22    1
     4    22     1    1
     5     1     2   am
     6     2     3    2
     7     2     4    1
     8     4     5   ar
     9     5     6   ar
    10     6     7   ar
    11     7     8   ar
    12     8     9   ar
    13     9    10    1
    14    10    11   ar
    15    11    12   ar
    16    12    13   ar
    17    13    14   ar
    18    14    15   ar
    19    16     1    1
    20    16    17    1
    21    17    18    1
    22    18    19    1
    23    19    20    1
    24     9     4   ar
    25    15    10   ar
    26    20    16    1
    27    19    21    1
@<TRIPOS>MOLECULE
*****
 25 27 0 0 0
SMALL
GASTEIGER

@<TRIPOS>ATOM
      1 N         141.5375  142.4699  164.5646 N.am    1  UNL1       -0.2763
      2 C         140.3267  142.5912  165.4417 C.2     1  UNL1        0.2490
      3 O         139.8157  143.9465  165.8314 O.2     1  UNL1       -0.2699
      4 C         139.6269  141.3571  165.9290 C.ar    1  UNL1        0.0536
      5 C         138.6873  140.6199  165.0215 C.ar    1  UNL1        0.0045
      6 C         137.9876  139.3859  165.5088 C.ar    1  UNL1        0.0001
      7 C         138.2274  138.8891  166.9037 C.ar    1  UNL1        0.0000
      8 C         139.1670  139.6263  167.8112 C.ar    1  UNL1        0.0001
      9 C         139.8667  140.8603  167.3239 C.ar    1  UNL1        0.0044
     10 C         140.8064  141.5976  168.2314 C.ar    1  UNL1        0.0001
     11 C         142.2572  141.2194  168.2762 C.ar    1  UNL1        0.0000
     12 C         143.1968  141.9566  169.1837 C.ar    1  UNL1        0.0000
     13 C         142.6856  143.0721  170.0465 C.ar    1  UNL1        0.0000
     14 C         141.2348  143.4504  170.0017 C.ar    1  UNL1        0.0000
     15 C         140.2951  142.7131  169.0942 C.ar    1  UNL1        0.0000
     16 C         142.0485  141.1144  164.1749 C.3     1  UNL1        0.0927
     17 C         142.9685  140.2519  164.9872 C.3     1  UNL1        0.0383
     18 C         143.2178  138.9881  164.2188 C.3     1  UNL1        0.0704
     19 N         142.4519  139.0694  162.9315 N.3     1  UNL1       -0.2960
     20 C         141.7293  140.3836  162.9045 C.3     1  UNL1        0.0887
     21 H         141.7799  138.3038  162.8795 H       1  UNL1        0.1233
     22 C         142.2373  143.7038  164.0773 C.3     1  UNL1        0.0936
     23 C         144.4380  143.8826  162.7079 C.3     1  UNL1        0.0018
     24 C         143.7359  143.7456  164.0264 C.3     1  UNL1        0.0199
     25 C         144.5323  143.6502  165.2939 C.3     1  UNL1        0.0018
@<TRIPOS>BOND
     1    23    24    1
     2    24    25    1
     3    24    22    1
     4    22     1    1
     5     1     2   am
     6     2     3    2
     7     2     4    1
     8     4     5   ar
     9     5     6   ar
    10     6     7   ar
    11     7     8   ar
    12     8     9   ar
    13     9    10    1
    14    10    11   ar
    15    11    12   ar
    16    12    13   ar
    17    13    14   ar
    18    14    15   ar
    19    16     1    1
    20    16    17    1
    21    17    18    1
    22    18    19    1
    23    19    20    1
    24     9     4   ar
    25    15    10   ar
    26    20    16    1
    27    19    21    1
@<TRIPOS>MOLECULE
*****
 25 27 0 0 0
SMALL
GASTEIGER

@<TRIPOS>ATOM
      1 N         141.9593  141.0665  165.9427 N.am    1  UNL1       -0.2763
      2 C         141.4795  141.7265  164.6840 C.2     1  UNL1        0.2490
      3 O         142.2702  141.5890  163.4167 O.2     1  UNL1       -0.2699
      4 C         140.2090  142.5239  164.6925 C.ar    1  UNL1        0.0536
      5 C         140.2389  143.9784  165.0579 C.ar    1  UNL1        0.0045
      6 C         138.9685  144.7757  165.0665 C.ar    1  UNL1        0.0001
      7 C         137.6681  144.1186  164.7097 C.ar    1  UNL1        0.0000
      8 C         137.6382  142.6642  164.3442 C.ar    1  UNL1        0.0001
      9 C         138.9087  141.8668  164.3357 C.ar    1  UNL1        0.0044
     10 C         138.8789  140.4122  163.9703 C.ar    1  UNL1        0.0001
     11 C         139.0475  139.9948  162.5394 C.ar    1  UNL1        0.0000
     12 C         139.0177  138.5404  162.1740 C.ar    1  UNL1        0.0000
     13 C         138.8192  137.5032  163.2394 C.ar    1  UNL1        0.0000
     14 C         138.6506  137.9206  164.6702 C.ar    1  UNL1        0.0000
     15 C         138.6804  139.3752  165.0357 C.ar    1  UNL1        0.0000
     16 C         141.1685  141.2040  167.2099 C.3     1  UNL1        0.0927
     17 C         140.2623  140.1650  167.8008 C.3     1  UNL1        0.0383
     18 C         139.6789  140.7235  169.0648 C.3     1  UNL1        0.0704
     19 N         140.2246  142.1077  169.2551 N.3     1  UNL1       -0.2960
     20 C         141.1452  142.4047  168.1087 C.3     1  UNL1        0.0887
     21 H         140.7389  142.1592  170.1344 H       1  UNL1        0.1233
     22 C         143.2297  140.2691  165.9341 C.3     1  UNL1        0.0936
     23 C         142.3078  138.1690  164.7136 C.3     1  UNL1        0.0018
     24 C         143.1787  138.7788  165.7718 C.3     1  UNL1        0.0199
     25 C         143.9985  137.8983  166.6676 C.3     1  UNL1        0.0018
@<TRIPOS>BOND
     1    23    24    1
     2    24    25    1
     3    24    22    1
     4    22     1    1
     5     1     2   am
     6     2     3    2
     7     2     4    1
     8     4     5   ar
     9     5     6   ar
    10     6     7   ar
    11     7     8   ar
    12     8     9   ar
    13     9    10    1
    14    10    11   ar
    15    11    12   ar
    16    12    13   ar
    17    13    14   ar
    18    14    15   ar
    19    16     1    1
    20    16    17    1
    21    17    18    1
    22    18    19    1
    23    19    20    1
    24     9     4   ar
    25    15    10   ar
    26    20    16    1
    27    19    21    1
@<TRIPOS>MOLECULE
*****
 25 27 0 0 0
SMALL
GASTEIGER

@<TRIPOS>ATOM
      1 N         141.9231  141.7720  166.1319 N.am    1  UNL1       -0.2763
      2 C         140.4990  142.0194  166.5327 C.2     1  UNL1        0.2490
      3 O         140.0387  141.6732  167.9177 O.2     1  UNL1       -0.2699
      4 C         139.5351  142.6130  165.5484 C.ar    1  UNL1        0.0536
      5 C         139.4751  144.1000  165.3610 C.ar    1  UNL1        0.0045
      6 C         138.5113  144.6936  164.3768 C.ar    1  UNL1        0.0001
      7 C         137.6075  143.8001  163.5801 C.ar    1  UNL1        0.0000
      8 C         137.6675  142.3131  163.7675 C.ar    1  UNL1        0.0001
      9 C         138.6313  141.7196  164.7517 C.ar    1  UNL1        0.0044
     10 C         138.6914  140.2325  164.9392 C.ar    1  UNL1        0.0001
     11 C         139.4228  139.3802  163.9449 C.ar    1  UNL1        0.0000
     12 C         139.4828  137.8932  164.1323 C.ar    1  UNL1        0.0000
     13 C         138.8115  137.2584  165.3140 C.ar    1  UNL1        0.0000
     14 C         138.0801  138.1107  166.3083 C.ar    1  UNL1        0.0000
     15 C         138.0201  139.5978  166.1209 C.ar    1  UNL1        0.0000
     16 C         142.3834  142.1183  164.7468 C.3     1  UNL1        0.0927
     17 C         142.3584  141.2068  163.5558 C.3     1  UNL1        0.0383
     18 C         142.9090  141.9620  162.3825 C.3     1  UNL1        0.0704
     19 N         143.2742  143.3403  162.8484 N.3     1  UNL1       -0.2960
     20 C         142.9494  143.4368  164.3096 C.3     1  UNL1        0.0887
     21 H         142.7384  144.0349  162.3280 H       1  UNL1        0.1233
     22 C         142.8870  141.1784  167.1160 C.3     1  UNL1        0.0936
     23 C         142.5548  139.3068  168.8871 C.3     1  UNL1        0.0018
     24 C         142.7995  139.7226  167.4667 C.3     1  UNL1        0.0199
     25 C         142.9568  138.6828  166.3972 C.3     1  UNL1        0.0018
@<TRIPOS>BOND
     1    23    24    1
     2    24    25    1
     3    24    22    1
     4    22     1    1
     5     1     2   am
     6     2     3    2
     7     2     4    1
     8     4     5   ar
     9     5     6   ar
    10     6     7   ar
    11     7     8   ar
    12     8     9   ar
    13     9    10    1
    14    10    11   ar
    15    11    12   ar
    16    12    13   ar
    17    13    14   ar
    18    14    15   ar
    19    16     1    1
    20    16    17    1
    21    17    18    1
    22    18    19    1
    23    19    20    1
    24     9     4   ar
    25    15    10   ar
    26    20    16    1
    27    19    21    1
@<TRIPOS>MOLECULE
*****
 25 27 0 0 0
SMALL
GASTEIGER

@<TRIPOS>ATOM
      1 N         142.6354  140.8978  164.8751 N.am    1  UNL1       -0.2763
      2 C         141.4516  140.5227  164.0337 C.2     1  UNL1        0.2490
      3 O         141.3469  141.0198  162.6224 O.2     1  UNL1       -0.2699
      4 C         140.3724  139.6505  164.6037 C.ar    1  UNL1        0.0536
      5 C         140.5447  138.1606  164.6238 C.ar    1  UNL1        0.0045
      6 C         139.4656  137.2885  165.1937 C.ar    1  UNL1        0.0001
      7 C         138.2143  137.9063  165.7437 C.ar    1  UNL1        0.0000
      8 C         138.0420  139.3962  165.7237 C.ar    1  UNL1        0.0001
      9 C         139.1211  140.2683  165.1537 C.ar    1  UNL1        0.0044
     10 C         138.9489  141.7583  165.1336 C.ar    1  UNL1        0.0001
     11 C         139.7609  142.6196  166.0549 C.ar    1  UNL1        0.0000
     12 C         139.5887  144.1095  166.0349 C.ar    1  UNL1        0.0000
     13 C         138.6045  144.7382  165.0935 C.ar    1  UNL1        0.0000
     14 C         137.7924  143.8769  164.1722 C.ar    1  UNL1        0.0000
     15 C         137.9647  142.3869  164.1923 C.ar    1  UNL1        0.0000
     16 C         142.7400  140.4007  166.2865 C.3     1  UNL1        0.0927
     17 C         142.4774  141.2037  167.5259 C.3     1  UNL1        0.0383
     18 C         142.7007  140.3126  168.7117 C.3     1  UNL1        0.0704
     19 N         143.1014  138.9587  168.2051 N.3     1  UNL1       -0.2960
     20 C         143.1257  139.0132  166.7063 C.3     1  UNL1        0.0887
     21 H         142.4267  138.2594  168.5152 H       1  UNL1        0.1233
     22 C         143.7145  141.7699  164.3052 C.3     1  UNL1        0.0936
     23 C         144.7315  143.7813  165.5974 C.3     1  UNL1        0.0018
     24 C         143.7356  143.2371  164.6166 C.3     1  UNL1        0.0199
     25 C         142.7610  144.1600  163.9471 C.3     1  UNL1        0.0018
@<TRIPOS>BOND
     1    23    24    1
     2    24    25    1
     3    24    22    1
     4    22     1    1
     5     1     2   am
     6     2     3    2
     7     2     4    1
     8     4     5   ar
     9     5     6   ar
    10     6     7   ar
    11     7     8   ar
    12     8     9   ar
    13     9    10    1
    14    10    11   ar
    15    11    12   ar
    16    12    13   ar
    17    13    14   ar
    18    14    15   ar
    19    16     1    1
    20    16    17    1
    21    17    18    1
    22    18    19    1
    23    19    20    1
    24     9     4   ar
    25    15    10   ar
    26    20    16    1
    27    19    21    1
@<TRIPOS>MOLECULE
*****
 25 27 0 0 0
SMALL
GASTEIGER

@<TRIPOS>ATOM
      1 N         141.0498  140.6763  166.2412 N.am    1  UNL1       -0.2763
      2 C         141.6229  141.0651  164.9106 C.2     1  UNL1        0.2490
      3 O         141.3565  140.2170  163.7025 O.2     1  UNL1       -0.2699
      4 C         142.4625  142.3022  164.7883 C.ar    1  UNL1        0.0536
      5 C         143.9212  142.2559  165.1345 C.ar    1  UNL1        0.0045
      6 C         144.7607  143.4929  165.0121 C.ar    1  UNL1        0.0001
      7 C         144.1414  144.7762  164.5436 C.ar    1  UNL1        0.0000
      8 C         142.6827  144.8226  164.1974 C.ar    1  UNL1        0.0001
      9 C         141.8432  143.5856  164.3198 C.ar    1  UNL1        0.0044
     10 C         140.3844  143.6319  163.9736 C.ar    1  UNL1        0.0001
     11 C         139.9230  143.2063  162.6112 C.ar    1  UNL1        0.0000
     12 C         138.4643  143.2525  162.2650 C.ar    1  UNL1        0.0000
     13 C         137.4668  143.7244  163.2812 C.ar    1  UNL1        0.0000
     14 C         137.9282  144.1500  164.6435 C.ar    1  UNL1        0.0000
     15 C         139.3870  144.1037  164.9897 C.ar    1  UNL1        0.0000
     16 C         141.3162  141.5245  167.4494 C.3     1  UNL1        0.0927
     17 C         142.5324  141.4550  168.3246 C.3     1  UNL1        0.0383
     18 C         142.3811  142.4786  169.4105 C.3     1  UNL1        0.0704
     19 N         141.0713  143.1808  169.2065 N.3     1  UNL1       -0.2960
     20 C         140.4132  142.5911  167.9944 C.3     1  UNL1        0.0887
     21 H         141.2317  144.1778  169.0627 H       1  UNL1        0.1233
     22 C         140.2102  139.4393  166.3636 C.3     1  UNL1        0.0936
     23 C         138.1709  140.4561  165.1156 C.3     1  UNL1        0.0018
     24 C         138.7288  139.5132  166.1402 C.3     1  UNL1        0.0199
     25 C         137.8053  138.6442  166.9413 C.3     1  UNL1        0.0018
@<TRIPOS>BOND
     1    23    24    1
     2    24    25    1
     3    24    22    1
     4    22     1    1
     5     1     2   am
     6     2     3    2
     7     2     4    1
     8     4     5   ar
     9     5     6   ar
    10     6     7   ar
    11     7     8   ar
    12     8     9   ar
    13     9    10    1
    14    10    11   ar
    15    11    12   ar
    16    12    13   ar
    17    13    14   ar
    18    14    15   ar
    19    16     1    1
    20    16    17    1
    21    17    18    1
    22    18    19    1
    23    19    20    1
    24     9     4   ar
    25    15    10   ar
    26    20    16    1
    27    19    21    1
@<TRIPOS>MOLECULE
*****
 25 27 0 0 0
SMALL
GASTEIGER

@<TRIPOS>ATOM
      1 N         140.9414  141.8909  167.8064 N.am    1  UNL1       -0.2763
      2 C         142.3918  141.7739  167.4420 C.2     1  UNL1        0.2490
      3 O         143.4030  142.6716  168.0911 O.2     1  UNL1       -0.2699
      4 C         142.8309  140.7590  166.4284 C.ar    1  UNL1        0.0536
      5 C         143.0197  139.3273  166.8338 C.ar    1  UNL1        0.0045
      6 C         143.4588  138.3125  165.8203 C.ar    1  UNL1        0.0001
      7 C         143.7090  138.7294  164.4013 C.ar    1  UNL1        0.0000
      8 C         143.5202  140.1611  163.9959 C.ar    1  UNL1        0.0001
      9 C         143.0811  141.1759  165.0094 C.ar    1  UNL1        0.0044
     10 C         142.8923  142.6078  164.6040 C.ar    1  UNL1        0.0001
     11 C         144.0473  143.5629  164.6643 C.ar    1  UNL1        0.0000
     12 C         143.8585  144.9946  164.2589 C.ar    1  UNL1        0.0000
     13 C         142.5146  145.4713  163.7932 C.ar    1  UNL1        0.0000
     14 C         141.3596  144.5162  163.7329 C.ar    1  UNL1        0.0000
     15 C         141.5484  143.0844  164.1384 C.ar    1  UNL1        0.0000
     16 C         139.9302  140.9931  167.1572 C.3     1  UNL1        0.0927
     17 C         139.3761  139.7252  167.7364 C.3     1  UNL1        0.0383
     18 C         138.3990  139.1541  166.7520 C.3     1  UNL1        0.0704
     19 N         138.3491  140.0691  165.5643 N.3     1  UNL1       -0.2960
     20 C         139.2955  141.2056  165.8148 C.3     1  UNL1        0.0887
     21 H         137.4020  140.4276  165.4431 H       1  UNL1        0.1233
     22 C         140.5023  142.9058  168.8199 C.3     1  UNL1        0.0936
     23 C         141.0093  141.3169  170.8120 C.3     1  UNL1        0.0018
     24 C         140.2718  142.4929  170.2434 C.3     1  UNL1        0.0199
     25 C         139.3039  143.2560  171.0983 C.3     1  UNL1        0.0018
@<TRIPOS>BOND
     1    23    24    1
     2    24    25    1
     3    24    22    1
     4    22     1    1
     5     1     2   am
     6     2     3    2
     7     2     4    1
     8     4     5   ar
     9     5     6   ar
    10     6     7   ar
    11     7     8   ar
    12     8     9   ar
    13     9    10    1
    14    10    11   ar
    15    11    12   ar
    16    12    13   ar
    17    13    14   ar
    18    14    15   ar
    19    16     1    1
    20    16    17    1
    21    17    18    1
    22    18    19    1
    23    19    20    1
    24     9     4   ar
    25    15    10   ar
    26    20    16    1
    27    19    21    1
