@<TRIPOS>MOLECULE
*****
 33 37 0 0 0
SMALL
GASTEIGER

@<TRIPOS>ATOM
      1 C         140.3097  145.5202  156.6424 C.3     1  UNL1        0.0233
      2 C         140.3276  144.7387  157.9226 C.3     1  UNL1        0.0955
      3 C         140.1745  145.4471  159.2360 C.3     1  UNL1        0.1135
      4 N         140.1924  144.6657  160.5161 N.am    1  UNL1       -0.2726
      5 C         140.0393  145.3740  161.8294 C.2     1  UNL1        0.2491
      6 O         139.8683  146.8638  161.8625 O.2     1  UNL1       -0.2699
      7 C         140.3633  143.1757  160.4831 C.3     1  UNL1        0.1152
      8 C         140.5164  142.4674  159.1698 C.3     1  UNL1        0.1152
      9 N         140.4985  143.2488  157.8895 N.am    1  UNL1       -0.2745
     10 C         140.6516  142.5405  156.5762 C.2     1  UNL1        0.2454
     11 O         140.6337  143.3219  155.2960 O.2     1  UNL1       -0.2702
     12 C         140.8226  141.0506  156.5432 C.2     1  UNL1        0.0373
     13 C         139.6207  140.1600  156.4336 C.2     1  UNL1        0.0006
     14 C         139.7917  138.6700  156.4006 C.2     1  UNL1        0.0011
     15 C         141.1647  138.0709  156.4771 C.2     1  UNL1        0.0154
     16 C         141.6410  136.6486  156.4672 C.2     1  UNL1        0.0218
     17 C         143.1374  136.6602  156.5706 C.2     1  UNL1        0.0985
     18 N         143.5858  138.0897  156.6445 N.2     1  UNL1       -0.2478
     19 C         142.3666  138.9616  156.5867 C.2     1  UNL1        0.0636
     20 C         142.1956  140.4514  156.6197 C.3     1  UNL1        0.0766
     21 C         140.0572  144.5925  163.1096 C.ar    1  UNL1        0.0536
     22 C         141.3642  144.1690  163.7116 C.ar    1  UNL1        0.0045
     23 C         141.3820  143.3875  164.9918 C.ar    1  UNL1        0.0002
     24 C         140.0929  143.0295  165.6701 C.ar    1  UNL1        0.0022
     25 C         138.7859  143.4530  165.0681 C.ar    1  UNL1        0.0002
     26 C         138.7681  144.2345  163.7879 C.ar    1  UNL1        0.0045
     27 C         140.1108  142.2480  166.9503 C.ar    1  UNL1        0.0275
     28 C         140.5457  142.9073  168.2255 C.ar    1  UNL1        0.0022
     29 C         140.5636  142.1258  169.5057 C.ar    1  UNL1        0.0001
     30 C         140.1465  140.6849  169.5106 C.ar    1  UNL1        0.0023
     31 C         139.7117  140.0257  168.2355 C.ar    1  UNL1        0.0296
     32 C         139.6938  140.8072  166.9552 C.ar    1  UNL1        0.1401
     33 F         139.2589  140.1478  165.6801 F       1  UNL1       -0.2042
@<TRIPOS>BOND
     1     2     1    1
     2     2     3    1
     3     3     4    1
     4     4     5   am
     5     5     6    2
     6     5    21    1
     7    21    22   ar
     8    22    23   ar
     9    23    24   ar
    10    24    27    1
    11    27    28   ar
    12    28    29   ar
    13    29    30   ar
    14    30    31   ar
    15    31    32   ar
    16    32    33    1
    17    24    25   ar
    18    25    26   ar
    19     4     7    1
    20     7     8    1
    21     8     9    1
    22     9    10   am
    23    10    11    2
    24    10    12    1
    25    12    13    2
    26    13    14    1
    27    14    15    2
    28    15    16    1
    29    16    17    2
    30    17    18    1
    31    18    19    2
    32    19    20    1
    33     9     2    1
    34    20    12    1
    35    26    21   ar
    36    19    15    1
    37    32    27   ar
@<TRIPOS>MOLECULE
*****
 33 37 0 0 0
SMALL
GASTEIGER

@<TRIPOS>ATOM
      1 C         145.2887  141.1231  155.6842 C.3     1  UNL1        0.0233
      2 C         144.4581  140.6594  156.8440 C.3     1  UNL1        0.0955
      3 C         144.3280  141.5209  158.0652 C.3     1  UNL1        0.1135
      4 N         143.4974  141.0573  159.2249 N.am    1  UNL1       -0.2726
      5 C         143.3672  141.9187  160.4460 C.2     1  UNL1        0.2491
      6 O         144.0677  143.2437  160.5073 O.2     1  UNL1       -0.2699
      7 C         142.7969  139.7323  159.1637 C.3     1  UNL1        0.1152
      8 C         142.9270  138.8709  157.9426 C.3     1  UNL1        0.1152
      9 N         143.7576  139.3345  156.7827 N.am    1  UNL1       -0.2745
     10 C         143.8878  138.4731  155.5616 C.2     1  UNL1        0.2454
     11 O         144.7184  138.9367  154.4019 O.2     1  UNL1       -0.2702
     12 C         143.1873  137.1481  155.5004 C.2     1  UNL1        0.0373
     13 C         141.7318  137.0850  155.1436 C.2     1  UNL1        0.0006
     14 C         141.0312  135.7600  155.0824 C.2     1  UNL1        0.0011
     15 C         141.7864  134.4981  155.3779 C.2     1  UNL1        0.0154
     16 C         141.3666  133.0582  155.3964 C.2     1  UNL1        0.0218
     17 C         142.5628  132.2313  155.7645 C.2     1  UNL1        0.0985
     18 N         143.7218  133.1602  155.9736 N.2     1  UNL1       -0.2478
     19 C         143.2420  134.5612  155.7347 C.2     1  UNL1        0.0636
     20 C         143.9424  135.8862  155.7959 C.3     1  UNL1        0.0766
     21 C         142.5366  141.4551  161.6058 C.ar    1  UNL1        0.0536
     22 C         143.1477  140.5893  162.6674 C.ar    1  UNL1        0.0045
     23 C         142.3170  140.1257  163.8272 C.ar    1  UNL1        0.0002
     24 C         140.8752  140.5279  163.9254 C.ar    1  UNL1        0.0022
     25 C         140.2641  141.3936  162.8638 C.ar    1  UNL1        0.0002
     26 C         141.0949  141.8572  161.7040 C.ar    1  UNL1        0.0045
     27 C         140.0446  140.0643  165.0852 C.ar    1  UNL1        0.0275
     28 C         140.3166  140.5942  166.4618 C.ar    1  UNL1        0.0022
     29 C         139.4859  140.1306  167.6216 C.ar    1  UNL1        0.0001
     30 C         138.3833  139.1370  167.4047 C.ar    1  UNL1        0.0023
     31 C         138.1114  138.6071  166.0281 C.ar    1  UNL1        0.0296
     32 C         138.9420  139.0707  164.8683 C.ar    1  UNL1        0.1401
     33 F         138.6701  138.5407  163.4916 F       1  UNL1       -0.2042
@<TRIPOS>BOND
     1     2     1    1
     2     2     3    1
     3     3     4    1
     4     4     5   am
     5     5     6    2
     6     5    21    1
     7    21    22   ar
     8    22    23   ar
     9    23    24   ar
    10    24    27    1
    11    27    28   ar
    12    28    29   ar
    13    29    30   ar
    14    30    31   ar
    15    31    32   ar
    16    32    33    1
    17    24    25   ar
    18    25    26   ar
    19     4     7    1
    20     7     8    1
    21     8     9    1
    22     9    10   am
    23    10    11    2
    24    10    12    1
    25    12    13    2
    26    13    14    1
    27    14    15    2
    28    15    16    1
    29    16    17    2
    30    17    18    1
    31    18    19    2
    32    19    20    1
    33     9     2    1
    34    20    12    1
    35    26    21   ar
    36    19    15    1
    37    32    27   ar
@<TRIPOS>MOLECULE
*****
 33 37 0 0 0
SMALL
GASTEIGER

@<TRIPOS>ATOM
      1 C         143.3155  143.5995  158.3225 C.3     1  UNL1        0.0233
      2 C         143.2230  142.1024  158.3120 C.3     1  UNL1        0.0955
      3 C         143.0554  141.3704  157.0134 C.3     1  UNL1        0.1135
      4 N         142.9629  139.8734  157.0028 N.am    1  UNL1       -0.2726
      5 C         142.7953  139.1414  155.7044 C.2     1  UNL1        0.2491
      6 O         142.7202  139.9065  154.4164 O.2     1  UNL1       -0.2699
      7 C         143.0380  139.1081  158.2909 C.3     1  UNL1        0.1152
      8 C         143.2056  139.8401  159.5893 C.3     1  UNL1        0.1152
      9 N         143.2981  141.3372  159.6000 N.am    1  UNL1       -0.2745
     10 C         143.4657  142.0692  160.8985 C.2     1  UNL1        0.2454
     11 O         143.5582  143.5662  160.9090 O.2     1  UNL1       -0.2702
     12 C         143.5409  141.3039  162.1865 C.2     1  UNL1        0.0373
     13 C         144.8629  140.7974  162.6819 C.2     1  UNL1        0.0006
     14 C         144.9380  140.0322  163.9699 C.2     1  UNL1        0.0011
     15 C         143.6910  139.7735  164.7624 C.2     1  UNL1        0.0154
     16 C         143.4560  139.0548  166.0578 C.2     1  UNL1        0.0218
     17 C         141.9887  139.1172  166.3629 C.2     1  UNL1        0.0985
     18 N         141.3168  139.8744  165.2561 N.2     1  UNL1       -0.2478
     19 C         142.3689  140.2801  164.2669 C.2     1  UNL1        0.0636
     20 C         142.2938  141.0453  162.9789 C.3     1  UNL1        0.0766
     21 C         142.7028  137.6443  155.6938 C.ar    1  UNL1        0.0536
     22 C         143.9524  136.8160  155.6438 C.ar    1  UNL1        0.0045
     23 C         143.8598  135.3188  155.6333 C.ar    1  UNL1        0.0002
     24 C         142.5178  134.6500  155.6728 C.ar    1  UNL1        0.0022
     25 C         141.2682  135.4783  155.7228 C.ar    1  UNL1        0.0002
     26 C         141.3608  136.9755  155.7333 C.ar    1  UNL1        0.0045
     27 C         142.4253  133.1529  155.6623 C.ar    1  UNL1        0.0275
     28 C         141.6734  132.4556  154.5675 C.ar    1  UNL1        0.0022
     29 C         141.5810  130.9585  154.5570 C.ar    1  UNL1        0.0001
     30 C         142.2404  130.1587  155.6413 C.ar    1  UNL1        0.0023
     31 C         142.9922  130.8561  156.7360 C.ar    1  UNL1        0.0296
     32 C         143.0847  132.3532  156.7465 C.ar    1  UNL1        0.1401
     33 F         143.8365  133.0505  157.8412 F       1  UNL1       -0.2042
@<TRIPOS>BOND
     1     2     1    1
     2     2     3    1
     3     3     4    1
     4     4     5   am
     5     5     6    2
     6     5    21    1
     7    21    22   ar
     8    22    23   ar
     9    23    24   ar
    10    24    27    1
    11    27    28   ar
    12    28    29   ar
    13    29    30   ar
    14    30    31   ar
    15    31    32   ar
    16    32    33    1
    17    24    25   ar
    18    25    26   ar
    19     4     7    1
    20     7     8    1
    21     8     9    1
    22     9    10   am
    23    10    11    2
    24    10    12    1
    25    12    13    2
    26    13    14    1
    27    14    15    2
    28    15    16    1
    29    16    17    2
    30    17    18    1
    31    18    19    2
    32    19    20    1
    33     9     2    1
    34    20    12    1
    35    26    21   ar
    36    19    15    1
    37    32    27   ar
@<TRIPOS>MOLECULE
*****
 33 37 0 0 0
SMALL
GASTEIGER

@<TRIPOS>ATOM
      1 C         139.7274  138.1175  157.4120 C.3     1  UNL1        0.0233
      2 C         140.3451  138.6141  158.6855 C.3     1  UNL1        0.0955
      3 C         139.7131  138.2821  160.0049 C.3     1  UNL1        0.1135
      4 N         140.3307  138.7786  161.2783 N.am    1  UNL1       -0.2726
      5 C         139.6988  138.4468  162.5976 C.2     1  UNL1        0.2491
      6 O         138.4492  137.6183  162.6433 O.2     1  UNL1       -0.2699
      7 C         141.5804  139.6071  161.2327 C.3     1  UNL1        0.1152
      8 C         142.2124  139.9390  159.9134 C.3     1  UNL1        0.1152
      9 N         141.5947  139.4425  158.6398 N.am    1  UNL1       -0.2745
     10 C         142.2266  139.7744  157.3205 C.2     1  UNL1        0.2454
     11 O         141.6090  139.2779  156.0470 O.2     1  UNL1       -0.2702
     12 C         143.4763  140.6028  157.2749 C.2     1  UNL1        0.0373
     13 C         143.6509  141.7500  158.2253 C.2     1  UNL1        0.0006
     14 C         144.9005  142.5784  158.1797 C.2     1  UNL1        0.0011
     15 C         145.9757  142.2596  157.1834 C.2     1  UNL1        0.0154
     16 C         147.3061  142.8940  156.9051 C.2     1  UNL1        0.0218
     17 C         147.9538  142.1388  155.7825 C.2     1  UNL1        0.0985
     18 N         147.0237  141.0377  155.3671 N.2     1  UNL1       -0.2478
     19 C         145.8011  141.1124  156.2329 C.2     1  UNL1        0.0636
     20 C         144.5514  140.2840  156.2786 C.3     1  UNL1        0.0766
     21 C         140.3165  138.9433  163.8712 C.ar    1  UNL1        0.0536
     22 C         141.4927  138.2256  164.4639 C.ar    1  UNL1        0.0045
     23 C         142.1104  138.7222  165.7374 C.ar    1  UNL1        0.0002
     24 C         141.5519  139.9365  166.4183 C.ar    1  UNL1        0.0022
     25 C         140.3756  140.6542  165.8256 C.ar    1  UNL1        0.0002
     26 C         139.7580  140.1576  164.5520 C.ar    1  UNL1        0.0045
     27 C         142.1696  140.4330  167.6918 C.ar    1  UNL1        0.0275
     28 C         142.1337  139.5800  168.9251 C.ar    1  UNL1        0.0022
     29 C         142.7514  140.0766  170.1987 C.ar    1  UNL1        0.0001
     30 C         143.4050  141.4262  170.2388 C.ar    1  UNL1        0.0023
     31 C         143.4408  142.2791  169.0055 C.ar    1  UNL1        0.0296
     32 C         142.8231  141.7825  167.7319 C.ar    1  UNL1        0.1401
     33 F         142.8589  142.6355  166.4986 F       1  UNL1       -0.2042
@<TRIPOS>BOND
     1     2     1    1
     2     2     3    1
     3     3     4    1
     4     4     5   am
     5     5     6    2
     6     5    21    1
     7    21    22   ar
     8    22    23   ar
     9    23    24   ar
    10    24    27    1
    11    27    28   ar
    12    28    29   ar
    13    29    30   ar
    14    30    31   ar
    15    31    32   ar
    16    32    33    1
    17    24    25   ar
    18    25    26   ar
    19     4     7    1
    20     7     8    1
    21     8     9    1
    22     9    10   am
    23    10    11    2
    24    10    12    1
    25    12    13    2
    26    13    14    1
    27    14    15    2
    28    15    16    1
    29    16    17    2
    30    17    18    1
    31    18    19    2
    32    19    20    1
    33     9     2    1
    34    20    12    1
    35    26    21   ar
    36    19    15    1
    37    32    27   ar
@<TRIPOS>MOLECULE
*****
 33 37 0 0 0
SMALL
GASTEIGER

@<TRIPOS>ATOM
      1 C         141.4813  138.8763  153.2996 C.3     1  UNL1        0.0233
      2 C         141.2574  138.6450  154.7647 C.3     1  UNL1        0.0955
      3 C         140.7674  139.7646  155.6345 C.3     1  UNL1        0.1135
      4 N         140.5435  139.5332  157.0995 N.am    1  UNL1       -0.2726
      5 C         140.0536  140.6528  157.9693 C.2     1  UNL1        0.2491
      6 O         139.7877  142.0037  157.3741 O.2     1  UNL1       -0.2699
      7 C         140.8094  138.1823  157.6948 C.3     1  UNL1        0.1152
      8 C         141.2993  137.0627  156.8249 C.3     1  UNL1        0.1152
      9 N         141.5233  137.2940  155.3599 N.am    1  UNL1       -0.2745
     10 C         142.0132  136.1745  154.4900 C.2     1  UNL1        0.2454
     11 O         142.2371  136.4058  153.0251 O.2     1  UNL1       -0.2702
     12 C         142.2791  134.8235  155.0853 C.2     1  UNL1        0.0373
     13 C         141.3304  133.6906  154.8280 C.2     1  UNL1        0.0006
     14 C         141.5963  132.3397  155.4233 C.2     1  UNL1        0.0011
     15 C         142.8110  132.1218  156.2759 C.2     1  UNL1        0.0154
     16 C         143.3308  130.9102  156.9914 C.2     1  UNL1        0.0218
     17 C         144.6009  131.2945  157.6909 C.2     1  UNL1        0.0985
     18 N         144.8660  132.7435  157.4078 N.2     1  UNL1       -0.2478
     19 C         143.7598  133.2548  156.5332 C.2     1  UNL1        0.0636
     20 C         143.4938  134.6057  155.9379 C.3     1  UNL1        0.0766
     21 C         139.8296  140.4214  159.4343 C.ar    1  UNL1        0.0536
     22 C         140.9788  140.5194  160.3934 C.ar    1  UNL1        0.0045
     23 C         140.7548  140.2880  161.8584 C.ar    1  UNL1        0.0002
     24 C         139.3816  139.9586  162.3644 C.ar    1  UNL1        0.0022
     25 C         138.2325  139.8606  161.4054 C.ar    1  UNL1        0.0002
     26 C         138.4565  140.0920  159.9403 C.ar    1  UNL1        0.0045
     27 C         139.1577  139.7272  163.8295 C.ar    1  UNL1        0.0275
     28 C         139.3421  140.8530  164.8034 C.ar    1  UNL1        0.0022
     29 C         139.1181  140.6217  166.2684 C.ar    1  UNL1        0.0001
     30 C         138.7097  139.2643  166.7594 C.ar    1  UNL1        0.0023
     31 C         138.5254  138.1386  165.7855 C.ar    1  UNL1        0.0296
     32 C         138.7494  138.3700  164.3205 C.ar    1  UNL1        0.1401
     33 F         138.5650  137.2442  163.3466 F       1  UNL1       -0.2042
@<TRIPOS>BOND
     1     2     1    1
     2     2     3    1
     3     3     4    1
     4     4     5   am
     5     5     6    2
     6     5    21    1
     7    21    22   ar
     8    22    23   ar
     9    23    24   ar
    10    24    27    1
    11    27    28   ar
    12    28    29   ar
    13    29    30   ar
    14    30    31   ar
    15    31    32   ar
    16    32    33    1
    17    24    25   ar
    18    25    26   ar
    19     4     7    1
    20     7     8    1
    21     8     9    1
    22     9    10   am
    23    10    11    2
    24    10    12    1
    25    12    13    2
    26    13    14    1
    27    14    15    2
    28    15    16    1
    29    16    17    2
    30    17    18    1
    31    18    19    2
    32    19    20    1
    33     9     2    1
    34    20    12    1
    35    26    21   ar
    36    19    15    1
    37    32    27   ar
@<TRIPOS>MOLECULE
*****
 33 37 0 0 0
SMALL
GASTEIGER

@<TRIPOS>ATOM
      1 C         140.4972  145.5808  156.8014 C.3     1  UNL1        0.0233
      2 C         140.7361  144.7814  158.0480 C.3     1  UNL1        0.0955
      3 C         140.4864  145.3968  159.3930 C.3     1  UNL1        0.1135
      4 N         140.7252  144.5974  160.6395 N.am    1  UNL1       -0.2726
      5 C         140.4757  145.2128  161.9845 C.2     1  UNL1        0.2491
      6 O         139.9872  146.6276  162.0829 O.2     1  UNL1       -0.2699
      7 C         141.2137  143.1825  160.5411 C.3     1  UNL1        0.1152
      8 C         141.4633  142.5672  159.1961 C.3     1  UNL1        0.1152
      9 N         141.2245  143.3666  157.9495 N.am    1  UNL1       -0.2745
     10 C         141.4741  142.7512  156.6045 C.2     1  UNL1        0.2454
     11 O         141.2353  143.5506  155.3580 O.2     1  UNL1       -0.2702
     12 C         141.9625  141.3363  156.5061 C.2     1  UNL1        0.0373
     13 C         143.4243  141.0590  156.3160 C.2     1  UNL1        0.0006
     14 C         143.9128  139.6441  156.2176 C.2     1  UNL1        0.0011
     15 C         142.9393  138.5066  156.3093 C.2     1  UNL1        0.0154
     16 C         143.1247  137.0195  156.2469 C.2     1  UNL1        0.0218
     17 C         141.7775  136.3777  156.3985 C.2     1  UNL1        0.0985
     18 N         140.7594  137.4682  156.5545 N.2     1  UNL1       -0.2478
     19 C         141.4775  138.7840  156.4994 C.2     1  UNL1        0.0636
     20 C         140.9891  140.1988  156.5978 C.3     1  UNL1        0.0766
     21 C         140.7145  144.4133  163.2310 C.ar    1  UNL1        0.0536
     22 C         139.5598  143.7779  163.9472 C.ar    1  UNL1        0.0045
     23 C         139.7988  142.9784  165.1938 C.ar    1  UNL1        0.0002
     24 C         141.1923  142.8144  165.7241 C.ar    1  UNL1        0.0022
     25 C         142.3469  143.4498  165.0079 C.ar    1  UNL1        0.0002
     26 C         142.1080  144.2493  163.7613 C.ar    1  UNL1        0.0045
     27 C         141.4311  142.0150  166.9706 C.ar    1  UNL1        0.0275
     28 C         142.2407  140.7537  166.9091 C.ar    1  UNL1        0.0022
     29 C         142.4796  139.9543  168.1557 C.ar    1  UNL1        0.0001
     30 C         141.9087  140.4162  169.4637 C.ar    1  UNL1        0.0023
     31 C         141.0991  141.6773  169.5251 C.ar    1  UNL1        0.0296
     32 C         140.8603  142.4768  168.2786 C.ar    1  UNL1        0.1401
     33 F         140.0507  143.7380  168.3401 F       1  UNL1       -0.2042
@<TRIPOS>BOND
     1     2     1    1
     2     2     3    1
     3     3     4    1
     4     4     5   am
     5     5     6    2
     6     5    21    1
     7    21    22   ar
     8    22    23   ar
     9    23    24   ar
    10    24    27    1
    11    27    28   ar
    12    28    29   ar
    13    29    30   ar
    14    30    31   ar
    15    31    32   ar
    16    32    33    1
    17    24    25   ar
    18    25    26   ar
    19     4     7    1
    20     7     8    1
    21     8     9    1
    22     9    10   am
    23    10    11    2
    24    10    12    1
    25    12    13    2
    26    13    14    1
    27    14    15    2
    28    15    16    1
    29    16    17    2
    30    17    18    1
    31    18    19    2
    32    19    20    1
    33     9     2    1
    34    20    12    1
    35    26    21   ar
    36    19    15    1
    37    32    27   ar
@<TRIPOS>MOLECULE
*****
 33 37 0 0 0
SMALL
GASTEIGER

@<TRIPOS>ATOM
      1 C         138.6498  142.9193  157.7558 C.3     1  UNL1        0.0233
      2 C         139.3051  141.5752  157.8734 C.3     1  UNL1        0.0955
      3 C         139.8134  140.8786  156.6460 C.3     1  UNL1        0.1135
      4 N         140.4687  139.5345  156.7637 N.am    1  UNL1       -0.2726
      5 C         140.9770  138.8379  155.5364 C.2     1  UNL1        0.2491
      6 O         140.8301  139.4855  154.1914 O.2     1  UNL1       -0.2699
      7 C         140.6157  138.8868  158.1087 C.3     1  UNL1        0.1152
      8 C         140.1073  139.5834  159.3360 C.3     1  UNL1        0.1152
      9 N         139.4520  140.9276  159.2184 N.am    1  UNL1       -0.2745
     10 C         138.9436  141.6242  160.4458 C.2     1  UNL1        0.2454
     11 O         138.2884  142.9683  160.3281 O.2     1  UNL1       -0.2702
     12 C         139.0906  140.9765  161.7908 C.2     1  UNL1        0.0373
     13 C         137.9918  140.1095  162.3298 C.2     1  UNL1        0.0006
     14 C         138.1388  139.4618  163.6748 C.2     1  UNL1        0.0011
     15 C         139.3847  139.6813  164.4808 C.2     1  UNL1        0.0154
     16 C         139.8099  139.1783  165.8284 C.2     1  UNL1        0.0218
     17 C         141.1716  139.7345  166.1222 C.2     1  UNL1        0.0985
     18 N         141.5879  140.5813  164.9562 N.2     1  UNL1       -0.2478
     19 C         140.4835  140.5485  163.9417 C.2     1  UNL1        0.0636
     20 C         140.3365  141.1961  162.5967 C.3     1  UNL1        0.0766
     21 C         141.6323  137.4937  155.6541 C.ar    1  UNL1        0.0536
     22 C         140.8147  136.2451  155.5047 C.ar    1  UNL1        0.0045
     23 C         141.4701  134.9009  155.6224 C.ar    1  UNL1        0.0002
     24 C         142.9430  134.8054  155.8894 C.ar    1  UNL1        0.0022
     25 C         143.7606  136.0541  156.0388 C.ar    1  UNL1        0.0002
     26 C         143.1052  137.3982  155.9211 C.ar    1  UNL1        0.0045
     27 C         143.5983  133.4613  156.0071 C.ar    1  UNL1        0.0275
     28 C         144.3618  133.1052  157.2482 C.ar    1  UNL1        0.0022
     29 C         145.0171  131.7610  157.3659 C.ar    1  UNL1        0.0001
     30 C         144.9088  130.7730  156.2424 C.ar    1  UNL1        0.0023
     31 C         144.1453  131.1291  155.0014 C.ar    1  UNL1        0.0296
     32 C         143.4900  132.4733  154.8837 C.ar    1  UNL1        0.1401
     33 F         142.7265  132.8293  153.6427 F       1  UNL1       -0.2042
@<TRIPOS>BOND
     1     2     1    1
     2     2     3    1
     3     3     4    1
     4     4     5   am
     5     5     6    2
     6     5    21    1
     7    21    22   ar
     8    22    23   ar
     9    23    24   ar
    10    24    27    1
    11    27    28   ar
    12    28    29   ar
    13    29    30   ar
    14    30    31   ar
    15    31    32   ar
    16    32    33    1
    17    24    25   ar
    18    25    26   ar
    19     4     7    1
    20     7     8    1
    21     8     9    1
    22     9    10   am
    23    10    11    2
    24    10    12    1
    25    12    13    2
    26    13    14    1
    27    14    15    2
    28    15    16    1
    29    16    17    2
    30    17    18    1
    31    18    19    2
    32    19    20    1
    33     9     2    1
    34    20    12    1
    35    26    21   ar
    36    19    15    1
    37    32    27   ar
@<TRIPOS>MOLECULE
*****
 33 37 0 0 0
SMALL
GASTEIGER

@<TRIPOS>ATOM
      1 C         141.8745  145.5300  156.5038 C.3     1  UNL1        0.0233
      2 C         141.2706  144.6969  157.5952 C.3     1  UNL1        0.0955
      3 C         141.8403  144.7503  158.9819 C.3     1  UNL1        0.1135
      4 N         141.2364  143.9172  160.0733 N.am    1  UNL1       -0.2726
      5 C         141.8060  143.9706  161.4599 C.2     1  UNL1        0.2491
      6 O         142.9794  144.8570  161.7551 O.2     1  UNL1       -0.2699
      7 C         140.0629  143.0307  159.7782 C.3     1  UNL1        0.1152
      8 C         139.4933  142.9774  158.3916 C.3     1  UNL1        0.1152
      9 N         140.0972  143.8105  157.3000 N.am    1  UNL1       -0.2745
     10 C         139.5276  143.7571  155.9134 C.2     1  UNL1        0.2454
     11 O         140.1314  144.5902  154.8220 O.2     1  UNL1       -0.2702
     12 C         138.3541  142.8706  155.6183 C.2     1  UNL1        0.0373
     13 C         136.9727  143.4515  155.5542 C.2     1  UNL1        0.0006
     14 C         135.7991  142.5650  155.2590 C.2     1  UNL1        0.0011
     15 C         136.0072  141.0976  155.0280 C.2     1  UNL1        0.0154
     16 C         135.0502  139.9846  154.7193 C.2     1  UNL1        0.0218
     17 C         135.8402  138.7158  154.5927 C.2     1  UNL1        0.0985
     18 N         137.2854  139.0446  154.8231 N.2     1  UNL1       -0.2478
     19 C         137.3887  140.5167  155.0922 C.2     1  UNL1        0.0636
     20 C         138.5621  141.4032  155.3873 C.3     1  UNL1        0.0766
     21 C         141.2021  143.1374  162.5514 C.ar    1  UNL1        0.0536
     22 C         141.6692  141.7281  162.7648 C.ar    1  UNL1        0.0045
     23 C         141.0652  140.8950  163.8563 C.ar    1  UNL1        0.0002
     24 C         139.9942  141.4712  164.7343 C.ar    1  UNL1        0.0022
     25 C         139.5271  142.8806  164.5208 C.ar    1  UNL1        0.0002
     26 C         140.1311  143.7136  163.4293 C.ar    1  UNL1        0.0045
     27 C         139.3903  140.6381  165.8257 C.ar    1  UNL1        0.0275
     28 C         138.3296  139.6290  165.4993 C.ar    1  UNL1        0.0022
     29 C         137.7257  138.7958  166.5907 C.ar    1  UNL1        0.0001
     30 C         138.1826  138.9720  168.0086 C.ar    1  UNL1        0.0023
     31 C         139.2432  139.9811  168.3350 C.ar    1  UNL1        0.0296
     32 C         139.8471  140.8142  167.2435 C.ar    1  UNL1        0.1401
     33 F         140.9078  141.8234  167.5699 F       1  UNL1       -0.2042
@<TRIPOS>BOND
     1     2     1    1
     2     2     3    1
     3     3     4    1
     4     4     5   am
     5     5     6    2
     6     5    21    1
     7    21    22   ar
     8    22    23   ar
     9    23    24   ar
    10    24    27    1
    11    27    28   ar
    12    28    29   ar
    13    29    30   ar
    14    30    31   ar
    15    31    32   ar
    16    32    33    1
    17    24    25   ar
    18    25    26   ar
    19     4     7    1
    20     7     8    1
    21     8     9    1
    22     9    10   am
    23    10    11    2
    24    10    12    1
    25    12    13    2
    26    13    14    1
    27    14    15    2
    28    15    16    1
    29    16    17    2
    30    17    18    1
    31    18    19    2
    32    19    20    1
    33     9     2    1
    34    20    12    1
    35    26    21   ar
    36    19    15    1
    37    32    27   ar
@<TRIPOS>MOLECULE
*****
 33 37 0 0 0
SMALL
GASTEIGER

@<TRIPOS>ATOM
      1 C         139.6671  146.2089  161.6673 C.3     1  UNL1        0.0233
      2 C         139.9979  144.8157  161.2207 C.3     1  UNL1        0.0955
      3 C         140.4064  144.5606  159.8000 C.3     1  UNL1        0.1135
      4 N         140.7372  143.1675  159.3533 N.am    1  UNL1       -0.2726
      5 C         141.1457  142.9124  157.9328 C.2     1  UNL1        0.2491
      6 O         141.2233  144.0506  156.9588 O.2     1  UNL1       -0.2699
      7 C         140.6595  142.0292  160.3273 C.3     1  UNL1        0.1152
      8 C         140.2511  142.2843  161.7478 C.3     1  UNL1        0.1152
      9 N         139.9202  143.6775  162.1946 N.am    1  UNL1       -0.2745
     10 C         139.5118  143.9326  163.6152 C.2     1  UNL1        0.2454
     11 O         139.1810  145.3257  164.0618 O.2     1  UNL1       -0.2702
     12 C         139.4341  142.7943  164.5891 C.2     1  UNL1        0.0373
     13 C         138.4390  141.6923  164.3769 C.2     1  UNL1        0.0006
     14 C         138.3614  140.5540  165.3508 C.2     1  UNL1        0.0011
     15 C         139.2789  140.5180  166.5369 C.2     1  UNL1        0.0154
     16 C         139.4326  139.5326  167.6574 C.2     1  UNL1        0.0218
     17 C         140.5227  140.0258  168.5620 C.2     1  UNL1        0.0985
     18 N         141.0428  141.3159  168.0007 N.2     1  UNL1       -0.2478
     19 C         140.2741  141.6201  166.7491 C.2     1  UNL1        0.0636
     20 C         140.3517  142.7583  165.7752 C.3     1  UNL1        0.0766
     21 C         141.4765  141.5192  157.4861 C.ar    1  UNL1        0.0536
     22 C         140.3894  140.6129  156.9893 C.ar    1  UNL1        0.0045
     23 C         140.7203  139.2196  156.5427 C.ar    1  UNL1        0.0002
     24 C         142.1382  138.7327  156.5928 C.ar    1  UNL1        0.0022
     25 C         143.2252  139.6391  157.0895 C.ar    1  UNL1        0.0002
     26 C         142.8943  141.0323  157.5362 C.ar    1  UNL1        0.0045
     27 C         142.4690  137.3395  156.1461 C.ar    1  UNL1        0.0275
     28 C         142.3810  136.9769  154.6933 C.ar    1  UNL1        0.0022
     29 C         142.7118  135.5837  154.2466 C.ar    1  UNL1        0.0001
     30 C         143.1306  134.5531  155.2529 C.ar    1  UNL1        0.0023
     31 C         143.2185  134.9157  156.7057 C.ar    1  UNL1        0.0296
     32 C         142.8877  136.3090  157.1524 C.ar    1  UNL1        0.1401
     33 F         142.9756  136.6716  158.6052 F       1  UNL1       -0.2042
@<TRIPOS>BOND
     1     2     1    1
     2     2     3    1
     3     3     4    1
     4     4     5   am
     5     5     6    2
     6     5    21    1
     7    21    22   ar
     8    22    23   ar
     9    23    24   ar
    10    24    27    1
    11    27    28   ar
    12    28    29   ar
    13    29    30   ar
    14    30    31   ar
    15    31    32   ar
    16    32    33    1
    17    24    25   ar
    18    25    26   ar
    19     4     7    1
    20     7     8    1
    21     8     9    1
    22     9    10   am
    23    10    11    2
    24    10    12    1
    25    12    13    2
    26    13    14    1
    27    14    15    2
    28    15    16    1
    29    16    17    2
    30    17    18    1
    31    18    19    2
    32    19    20    1
    33     9     2    1
    34    20    12    1
    35    26    21   ar
    36    19    15    1
    37    32    27   ar
