@<TRIPOS>MOLECULE
*****
 26 29 0 0 0
SMALL
GASTEIGER

@<TRIPOS>ATOM
      1 C         139.6664  142.3112  165.5744 C.2     1  UNL1        0.0335
      2 C         138.7051  141.4958  164.7615 C.2     1  UNL1        0.0250
      3 C         138.3731  141.9071  163.3577 C.2     1  UNL1        0.0954
      4 CL        137.4117  141.0917  162.5448 Cl      1  UNL1       -0.0791
      5 C         139.0024  143.1339  162.7669 C.2     1  UNL1        0.1992
      6 N         138.8686  143.7813  161.4205 N.2     1  UNL1       -0.0667
      7 C         139.7473  144.9968  161.4013 C.cat   1  UNL1        0.4252
      8 N         140.4241  145.1006  162.7359 N.2     1  UNL1       -0.0714
      9 C         139.9638  143.9492  163.5799 C.2     1  UNL1        0.1766
     10 C         140.2958  143.5379  164.9837 C.3     1  UNL1        0.1082
     11 C         140.9945  140.6659  171.1896 C.3     1  UNL1        0.0897
     12 N         140.6625  141.0772  169.7858 N.3     1  UNL1       -0.2686
     13 C         140.0930  140.0755  168.8255 C.3     1  UNL1        0.0938
     14 C         139.7610  140.4868  167.4218 C.3     1  UNL1        0.1079
     15 N         139.9985  141.8999  166.9783 N.pl3   1  UNL1       -0.3076
     16 C         140.5678  142.9017  167.9385 C.3     1  UNL1        0.1079
     17 C         140.8999  142.4904  169.3424 C.3     1  UNL1        0.0938
     18 N         139.9190  145.9426  160.2497 N.pl3   1  UNL1       -0.1848
     19 H         139.5476  146.8529  160.3008 H       1  UNL1        0.2530
     20 C         140.6566  145.5013  159.0204 C.ar    1  UNL1        0.1936
     21 C         140.1633  145.9077  157.6634 C.ar    1  UNL1        0.0522
     22 C         140.9010  145.4665  156.4341 C.ar    1  UNL1        0.0126
     23 C         142.1319  144.6188  156.5618 C.ar    1  UNL1        0.0539
     24 BR        142.8695  144.1776  155.3325 Br      1  UNL1       -0.0474
     25 C         142.6252  144.2125  157.9189 C.ar    1  UNL1        0.1083
     26 N         141.8876  144.6537  159.1482 N.ar    1  UNL1       -0.2144
@<TRIPOS>BOND
     1    11    12    1
     2    12    13    1
     3    13    14    1
     4    14    15    1
     5    15     1    1
     6     1     2    2
     7     2     3    1
     8     3     4    1
     9     3     5    2
    10     5     6    1
    11     6     7    2
    12     7    18    1
    13    18    20    1
    14    20    21   ar
    15    21    22   ar
    16    22    23   ar
    17    23    24    1
    18    23    25   ar
    19    25    26   ar
    20     7     8    1
    21     8     9    2
    22     9    10    1
    23    15    16    1
    24    16    17    1
    25    17    12    1
    26    10     1    1
    27     9     5    1
    28    26    20   ar
    29    18    19    1
@<TRIPOS>MOLECULE
*****
 26 29 0 0 0
SMALL
GASTEIGER

@<TRIPOS>ATOM
      1 C         138.7106  140.0325  160.1946 C.2     1  UNL1        0.0335
      2 C         138.3813  141.4629  160.5031 C.2     1  UNL1        0.0250
      3 C         138.1452  141.8890  161.9219 C.2     1  UNL1        0.0954
      4 CL        137.8159  143.3196  162.2304 Cl      1  UNL1       -0.0791
      5 C         138.2383  140.8845  163.0320 C.2     1  UNL1        0.1992
      6 N         138.0581  141.0090  164.5159 N.2     1  UNL1       -0.0667
      7 C         138.2759  139.6554  165.1244 C.cat   1  UNL1        0.4252
      8 N         138.5908  138.6944  164.0166 N.2     1  UNL1       -0.0714
      9 C         138.5676  139.4540  162.7234 C.2     1  UNL1        0.1766
     10 C         138.8037  139.0280  161.3047 C.3     1  UNL1        0.1082
     11 C         139.6550  138.3282  154.5197 C.3     1  UNL1        0.0897
     12 N         139.4189  138.7542  155.9384 N.3     1  UNL1       -0.2686
     13 C         138.6289  139.9963  156.2269 C.3     1  UNL1        0.0938
     14 C         138.3928  140.4223  157.6456 C.3     1  UNL1        0.1079
     15 N         138.9467  139.6063  158.7758 N.pl3   1  UNL1       -0.3076
     16 C         139.7366  138.3643  158.4874 C.3     1  UNL1        0.1079
     17 C         139.9728  137.9382  157.0686 C.3     1  UNL1        0.0938
     18 N         138.1933  139.3215  166.5844 N.pl3   1  UNL1       -0.1848
     19 H         137.3813  138.8999  166.9478 H       1  UNL1        0.2530
     20 C         139.3481  139.6299  167.4908 C.ar    1  UNL1        0.1936
     21 C         140.7280  139.7812  166.9226 C.ar    1  UNL1        0.0522
     22 C         141.8827  140.0896  167.8290 C.ar    1  UNL1        0.0126
     23 C         141.6575  140.2466  169.3036 C.ar    1  UNL1        0.0539
     24 BR        142.8122  140.5550  170.2100 Br      1  UNL1       -0.0474
     25 C         140.2775  140.0952  169.8718 C.ar    1  UNL1        0.1083
     26 N         139.1228  139.7869  168.9655 N.ar    1  UNL1       -0.2144
@<TRIPOS>BOND
     1    11    12    1
     2    12    13    1
     3    13    14    1
     4    14    15    1
     5    15     1    1
     6     1     2    2
     7     2     3    1
     8     3     4    1
     9     3     5    2
    10     5     6    1
    11     6     7    2
    12     7    18    1
    13    18    20    1
    14    20    21   ar
    15    21    22   ar
    16    22    23   ar
    17    23    24    1
    18    23    25   ar
    19    25    26   ar
    20     7     8    1
    21     8     9    2
    22     9    10    1
    23    15    16    1
    24    16    17    1
    25    17    12    1
    26    10     1    1
    27     9     5    1
    28    26    20   ar
    29    18    19    1
@<TRIPOS>MOLECULE
*****
 26 29 0 0 0
SMALL
GASTEIGER

@<TRIPOS>ATOM
      1 C         142.5052  138.4474  160.7745 C.2     1  UNL1        0.0335
      2 C         141.1081  138.0530  161.1521 C.2     1  UNL1        0.0250
      3 C         140.7269  137.9348  162.5981 C.2     1  UNL1        0.0954
      4 CL        139.3298  137.5404  162.9755 Cl      1  UNL1       -0.0791
      5 C         141.7429  138.2110  163.6664 C.2     1  UNL1        0.1992
      6 N         141.6598  138.1758  165.1637 N.2     1  UNL1       -0.0667
      7 C         143.0055  138.5485  165.7115 C.cat   1  UNL1        0.4252
      8 N         143.9204  138.8140  164.5528 N.2     1  UNL1       -0.0714
      9 C         143.1400  138.6054  163.2889 C.2     1  UNL1        0.1766
     10 C         143.5212  138.7236  161.8429 C.3     1  UNL1        0.1082
     11 C         144.0298  138.9201  154.9907 C.3     1  UNL1        0.0897
     12 N         143.6487  138.8019  156.4367 N.3     1  UNL1       -0.2686
     13 C         143.0678  137.5205  156.9569 C.3     1  UNL1        0.0938
     14 C         142.6866  137.4024  158.4028 C.3     1  UNL1        0.1079
     15 N         142.8863  138.5656  159.3285 N.pl3   1  UNL1       -0.3076
     16 C         143.4672  139.8470  158.8084 C.3     1  UNL1        0.1079
     17 C         143.8484  139.9652  157.3624 C.3     1  UNL1        0.0938
     18 N         143.3721  138.6397  167.1632 N.pl3   1  UNL1       -0.1848
     19 H         144.0972  138.0800  167.5239 H       1  UNL1        0.2530
     20 C         142.6338  139.5837  168.0653 C.ar    1  UNL1        0.1936
     21 C         142.3440  139.1930  169.4842 C.ar    1  UNL1        0.0522
     22 C         141.6057  140.1370  170.3863 C.ar    1  UNL1        0.0126
     23 C         141.1572  141.4718  169.8694 C.ar    1  UNL1        0.0539
     24 BR        140.4189  142.4158  170.7715 Br      1  UNL1       -0.0474
     25 C         141.4470  141.8625  168.4505 C.ar    1  UNL1        0.1083
     26 N         142.1853  140.9185  167.5484 N.ar    1  UNL1       -0.2144
@<TRIPOS>BOND
     1    11    12    1
     2    12    13    1
     3    13    14    1
     4    14    15    1
     5    15     1    1
     6     1     2    2
     7     2     3    1
     8     3     4    1
     9     3     5    2
    10     5     6    1
    11     6     7    2
    12     7    18    1
    13    18    20    1
    14    20    21   ar
    15    21    22   ar
    16    22    23   ar
    17    23    24    1
    18    23    25   ar
    19    25    26   ar
    20     7     8    1
    21     8     9    2
    22     9    10    1
    23    15    16    1
    24    16    17    1
    25    17    12    1
    26    10     1    1
    27     9     5    1
    28    26    20   ar
    29    18    19    1
@<TRIPOS>MOLECULE
*****
 26 29 0 0 0
SMALL
GASTEIGER

@<TRIPOS>ATOM
      1 C         141.2961  142.2866  166.0375 C.2     1  UNL1        0.0335
      2 C         140.0878  143.1416  166.2800 C.2     1  UNL1        0.0250
      3 C         139.6645  144.1504  165.2536 C.2     1  UNL1        0.0954
      4 CL        138.4561  145.0054  165.4961 Cl      1  UNL1       -0.0791
      5 C         140.4498  144.3041  163.9848 C.2     1  UNL1        0.1992
      6 N         140.2751  145.2066  162.7995 N.2     1  UNL1       -0.0667
      7 C         141.3756  144.9093  161.8246 C.cat   1  UNL1        0.4252
      8 N         142.2304  143.8231  162.4073 N.2     1  UNL1       -0.0714
      9 C         141.6581  143.4490  163.7424 C.2     1  UNL1        0.1766
     10 C         142.0813  142.4403  164.7688 C.3     1  UNL1        0.1082
     11 C         142.9888  138.2517  170.1429 C.3     1  UNL1        0.0897
     12 N         142.5656  139.2604  169.1166 N.3     1  UNL1       -0.2686
     13 C         141.7815  140.4697  169.5323 C.3     1  UNL1        0.0938
     14 C         141.3584  141.4784  168.5059 C.3     1  UNL1        0.1079
     15 N         141.7193  141.2778  167.0639 N.pl3   1  UNL1       -0.3076
     16 C         142.5033  140.0686  166.6482 C.3     1  UNL1        0.1079
     17 C         142.9265  139.0598  167.6746 C.3     1  UNL1        0.0938
     18 N         141.5847  145.5805  160.4995 N.pl3   1  UNL1       -0.1848
     19 H         141.8369  146.5315  160.4637 H       1  UNL1        0.2530
     20 C         141.4094  144.8027  159.2289 C.ar    1  UNL1        0.1936
     21 C         140.0719  144.2163  158.8868 C.ar    1  UNL1        0.0522
     22 C         139.8966  143.4386  157.6163 C.ar    1  UNL1        0.0126
     23 C         141.0590  143.2472  156.6877 C.ar    1  UNL1        0.0539
     24 BR        140.8838  142.4694  155.4171 Br      1  UNL1       -0.0474
     25 C         142.3966  143.8336  157.0298 C.ar    1  UNL1        0.1083
     26 N         142.5719  144.6114  158.3003 N.ar    1  UNL1       -0.2144
@<TRIPOS>BOND
     1    11    12    1
     2    12    13    1
     3    13    14    1
     4    14    15    1
     5    15     1    1
     6     1     2    2
     7     2     3    1
     8     3     4    1
     9     3     5    2
    10     5     6    1
    11     6     7    2
    12     7    18    1
    13    18    20    1
    14    20    21   ar
    15    21    22   ar
    16    22    23   ar
    17    23    24    1
    18    23    25   ar
    19    25    26   ar
    20     7     8    1
    21     8     9    2
    22     9    10    1
    23    15    16    1
    24    16    17    1
    25    17    12    1
    26    10     1    1
    27     9     5    1
    28    26    20   ar
    29    18    19    1
@<TRIPOS>MOLECULE
*****
 26 29 0 0 0
SMALL
GASTEIGER

@<TRIPOS>ATOM
      1 C         140.7059  143.1214  165.4122 C.2     1  UNL1        0.0335
      2 C         139.2532  143.3711  165.1345 C.2     1  UNL1        0.0250
      3 C         138.8318  143.9674  163.8241 C.2     1  UNL1        0.0954
      4 CL        137.3790  144.2171  163.5463 Cl      1  UNL1       -0.0791
      5 C         139.8633  144.3138  162.7915 C.2     1  UNL1        0.1992
      6 N         139.7493  144.9085  161.4192 N.2     1  UNL1       -0.0667
      7 C         141.1316  145.0263  160.8489 C.cat   1  UNL1        0.4252
      8 N         142.0999  144.5044  161.8687 N.2     1  UNL1       -0.0714
      9 C         141.3160  144.0640  163.0694 C.2     1  UNL1        0.1766
     10 C         141.7373  143.4678  164.3797 C.3     1  UNL1        0.1082
     11 C         142.3912  140.7366  170.6537 C.3     1  UNL1        0.0897
     12 N         141.9699  141.3328  169.3433 N.3     1  UNL1       -0.2686
     13 C         140.8206  142.2953  169.2923 C.3     1  UNL1        0.0938
     14 C         140.3993  142.8915  167.9819 C.3     1  UNL1        0.1079
     15 N         141.1273  142.5251  166.7226 N.pl3   1  UNL1       -0.3076
     16 C         142.2765  141.5626  166.7737 C.3     1  UNL1        0.1079
     17 C         142.6979  140.9664  168.0841 C.3     1  UNL1        0.0938
     18 N         141.4839  145.5706  159.4962 N.pl3   1  UNL1       -0.1848
     19 H         142.2766  146.1442  159.3876 H       1  UNL1        0.2530
     20 C         140.6284  145.2408  158.3091 C.ar    1  UNL1        0.1936
     21 C         140.3378  146.2915  157.2788 C.ar    1  UNL1        0.0522
     22 C         139.4824  145.9617  156.0917 C.ar    1  UNL1        0.0126
     23 C         138.9174  144.5811  155.9347 C.ar    1  UNL1        0.0539
     24 BR        138.0619  144.2513  154.7475 Br      1  UNL1       -0.0474
     25 C         139.2080  143.5302  156.9650 C.ar    1  UNL1        0.1083
     26 N         140.0635  143.8600  158.1522 N.ar    1  UNL1       -0.2144
@<TRIPOS>BOND
     1    11    12    1
     2    12    13    1
     3    13    14    1
     4    14    15    1
     5    15     1    1
     6     1     2    2
     7     2     3    1
     8     3     4    1
     9     3     5    2
    10     5     6    1
    11     6     7    2
    12     7    18    1
    13    18    20    1
    14    20    21   ar
    15    21    22   ar
    16    22    23   ar
    17    23    24    1
    18    23    25   ar
    19    25    26   ar
    20     7     8    1
    21     8     9    2
    22     9    10    1
    23    15    16    1
    24    16    17    1
    25    17    12    1
    26    10     1    1
    27     9     5    1
    28    26    20   ar
    29    18    19    1
@<TRIPOS>MOLECULE
*****
 26 29 0 0 0
SMALL
GASTEIGER

@<TRIPOS>ATOM
      1 C         139.8131  138.8386  158.2735 C.2     1  UNL1        0.0335
      2 C         139.3058  140.1528  157.7583 C.2     1  UNL1        0.0250
      3 C         138.5971  141.0978  158.6829 C.2     1  UNL1        0.0954
      4 CL        138.0898  142.4120  158.1676 Cl      1  UNL1       -0.0791
      5 C         138.3959  140.7285  160.1227 C.2     1  UNL1        0.1992
      6 N         137.7395  141.4507  161.2618 N.2     1  UNL1       -0.0667
      7 C         137.8412  140.5829  162.4810 C.cat   1  UNL1        0.4252
      8 N         138.5604  139.3242  162.0954 N.2     1  UNL1       -0.0714
      9 C         138.9032  139.4143  160.6379 C.2     1  UNL1        0.1766
     10 C         139.6118  138.4693  159.7133 C.3     1  UNL1        0.1082
     11 C         142.6474  135.0586  154.5750 C.3     1  UNL1        0.0897
     12 N         141.9388  136.0036  155.4996 N.3     1  UNL1       -0.2686
     13 C         140.4860  136.3114  155.2884 C.3     1  UNL1        0.0938
     14 C         139.7775  137.2564  156.2130 C.3     1  UNL1        0.1079
     15 N         140.5217  137.8936  157.3488 N.pl3   1  UNL1       -0.3076
     16 C         141.9745  137.5859  157.5600 C.3     1  UNL1        0.1079
     17 C         142.6831  136.6408  156.6354 C.3     1  UNL1        0.0938
     18 N         137.3159  140.9152  163.8461 N.pl3   1  UNL1       -0.1848
     19 H         136.3966  141.2516  163.9514 H       1  UNL1        0.2530
     20 C         138.1911  140.7350  165.0509 C.ar    1  UNL1        0.1936
     21 C         138.0713  139.4950  165.8863 C.ar    1  UNL1        0.0522
     22 C         138.9465  139.3148  167.0911 C.ar    1  UNL1        0.0126
     23 C         139.9416  140.3747  167.4605 C.ar    1  UNL1        0.0539
     24 BR        140.8169  140.1945  168.6652 Br      1  UNL1       -0.0474
     25 C         140.0615  141.6148  166.6250 C.ar    1  UNL1        0.1083
     26 N         139.1862  141.7950  165.4202 N.ar    1  UNL1       -0.2144
@<TRIPOS>BOND
     1    11    12    1
     2    12    13    1
     3    13    14    1
     4    14    15    1
     5    15     1    1
     6     1     2    2
     7     2     3    1
     8     3     4    1
     9     3     5    2
    10     5     6    1
    11     6     7    2
    12     7    18    1
    13    18    20    1
    14    20    21   ar
    15    21    22   ar
    16    22    23   ar
    17    23    24    1
    18    23    25   ar
    19    25    26   ar
    20     7     8    1
    21     8     9    2
    22     9    10    1
    23    15    16    1
    24    16    17    1
    25    17    12    1
    26    10     1    1
    27     9     5    1
    28    26    20   ar
    29    18    19    1
@<TRIPOS>MOLECULE
*****
 26 29 0 0 0
SMALL
GASTEIGER

@<TRIPOS>ATOM
      1 C         141.5129  138.8836  163.3253 C.2     1  UNL1        0.0335
      2 C         140.2052  139.2634  162.6965 C.2     1  UNL1        0.0250
      3 C         140.0034  139.0872  161.2205 C.2     1  UNL1        0.0954
      4 CL        138.6956  139.4671  160.5917 Cl      1  UNL1       -0.0791
      5 C         141.1094  138.5310  160.3735 C.2     1  UNL1        0.1992
      6 N         141.2018  138.2462  158.9037 N.2     1  UNL1       -0.0667
      7 C         142.5666  137.6903  158.6242 C.cat   1  UNL1        0.4252
      8 N         143.3178  137.6316  159.9213 N.2     1  UNL1       -0.0714
      9 C         142.4172  138.1511  161.0024 C.2     1  UNL1        0.1766
     10 C         142.6189  138.3274  162.4783 C.3     1  UNL1        0.1082
     11 C         142.3200  139.5887  169.2288 C.3     1  UNL1        0.0897
     12 N         142.1182  139.4124  167.7530 N.3     1  UNL1       -0.2686
     13 C         140.8491  139.8848  167.1077 C.3     1  UNL1        0.0938
     14 C         140.6474  139.7085  165.6319 C.3     1  UNL1        0.1079
     15 N         141.7147  139.0598  164.8012 N.pl3   1  UNL1       -0.3076
     16 C         142.9837  138.5875  165.4464 C.3     1  UNL1        0.1079
     17 C         143.1855  138.7637  166.9223 C.3     1  UNL1        0.0938
     18 N         143.0887  137.2675  157.2831 N.pl3   1  UNL1       -0.1848
     19 H         143.7076  137.8524  156.7890 H       1  UNL1        0.2530
     20 C         142.6678  135.9534  156.6947 C.ar    1  UNL1        0.1936
     21 C         143.2862  134.6787  157.1872 C.ar    1  UNL1        0.0522
     22 C         142.8653  133.3647  156.5988 C.ar    1  UNL1        0.0126
     23 C         141.8260  133.3254  155.5179 C.ar    1  UNL1        0.0539
     24 BR        141.4051  132.0114  154.9295 Br      1  UNL1       -0.0474
     25 C         141.2076  134.6002  155.0255 C.ar    1  UNL1        0.1083
     26 N         141.6285  135.9142  155.6138 N.ar    1  UNL1       -0.2144
@<TRIPOS>BOND
     1    11    12    1
     2    12    13    1
     3    13    14    1
     4    14    15    1
     5    15     1    1
     6     1     2    2
     7     2     3    1
     8     3     4    1
     9     3     5    2
    10     5     6    1
    11     6     7    2
    12     7    18    1
    13    18    20    1
    14    20    21   ar
    15    21    22   ar
    16    22    23   ar
    17    23    24    1
    18    23    25   ar
    19    25    26   ar
    20     7     8    1
    21     8     9    2
    22     9    10    1
    23    15    16    1
    24    16    17    1
    25    17    12    1
    26    10     1    1
    27     9     5    1
    28    26    20   ar
    29    18    19    1
@<TRIPOS>MOLECULE
*****
 26 29 0 0 0
SMALL
GASTEIGER

@<TRIPOS>ATOM
      1 C         142.2662  142.4401  165.6286 C.2     1  UNL1        0.0335
      2 C         143.6034  142.0736  165.0564 C.2     1  UNL1        0.0250
      3 C         143.9910  142.5530  163.6889 C.2     1  UNL1        0.0954
      4 CL        145.3283  142.1864  163.1167 Cl      1  UNL1       -0.0791
      5 C         143.0413  143.3989  162.8937 C.2     1  UNL1        0.1992
      6 N         143.1458  144.0134  161.5293 N.2     1  UNL1       -0.0667
      7 C         141.8732  144.7597  161.2584 C.cat   1  UNL1        0.4252
      8 N         140.9821  144.6065  162.4553 N.2     1  UNL1       -0.0714
      9 C         141.7040  143.7655  163.4660 C.2     1  UNL1        0.1766
     10 C         141.3165  143.2860  164.8334 C.3     1  UNL1        0.1082
     11 C         140.7161  140.5223  171.0985 C.3     1  UNL1        0.0897
     12 N         141.1036  141.0018  169.7311 N.3     1  UNL1       -0.2686
     13 C         142.2526  140.3619  169.0096 C.3     1  UNL1        0.0938
     14 C         142.6401  140.8413  167.6421 C.3     1  UNL1        0.1079
     15 N         141.8787  141.9607  166.9961 N.pl3   1  UNL1       -0.3076
     16 C         140.7298  142.6005  167.7175 C.3     1  UNL1        0.1079
     17 C         140.3422  142.1211  169.0851 C.3     1  UNL1        0.0938
     18 N         141.5486  145.5249  160.0098 N.pl3   1  UNL1       -0.1848
     19 H         141.9044  146.4341  159.8831 H       1  UNL1        0.2530
     20 C         140.6819  144.9049  158.9541 C.ar    1  UNL1        0.1936
     21 C         140.5310  145.5732  157.6197 C.ar    1  UNL1        0.0522
     22 C         139.6644  144.9532  156.5641 C.ar    1  UNL1        0.0126
     23 C         138.9485  143.6648  156.8427 C.ar    1  UNL1        0.0539
     24 BR        138.0818  143.0448  155.7871 Br      1  UNL1       -0.0474
     25 C         139.0994  142.9965  158.1772 C.ar    1  UNL1        0.1083
     26 N         139.9661  143.6165  159.2329 N.ar    1  UNL1       -0.2144
@<TRIPOS>BOND
     1    11    12    1
     2    12    13    1
     3    13    14    1
     4    14    15    1
     5    15     1    1
     6     1     2    2
     7     2     3    1
     8     3     4    1
     9     3     5    2
    10     5     6    1
    11     6     7    2
    12     7    18    1
    13    18    20    1
    14    20    21   ar
    15    21    22   ar
    16    22    23   ar
    17    23    24    1
    18    23    25   ar
    19    25    26   ar
    20     7     8    1
    21     8     9    2
    22     9    10    1
    23    15    16    1
    24    16    17    1
    25    17    12    1
    26    10     1    1
    27     9     5    1
    28    26    20   ar
    29    18    19    1
@<TRIPOS>MOLECULE
*****
 26 29 0 0 0
SMALL
GASTEIGER

@<TRIPOS>ATOM
      1 C         140.2246  139.2608  162.8370 C.2     1  UNL1        0.0335
      2 C         139.1505  139.6976  161.8856 C.2     1  UNL1        0.0250
      3 C         139.3052  139.4494  160.4143 C.2     1  UNL1        0.0954
      4 CL        138.2309  139.8863  159.4629 Cl      1  UNL1       -0.0791
      5 C         140.5343  138.7644  159.8946 C.2     1  UNL1        0.1992
      6 N         140.9622  138.3870  158.5073 N.2     1  UNL1       -0.0667
      7 C         142.3009  137.7170  158.6014 C.cat   1  UNL1        0.4252
      8 N         142.7004  137.6802  160.0468 N.2     1  UNL1       -0.0714
      9 C         141.6086  138.3276  160.8460 C.2     1  UNL1        0.1766
     10 C         141.4537  138.5758  162.3172 C.3     1  UNL1        0.1082
     11 C         139.6057  140.2535  168.7218 C.3     1  UNL1        0.0897
     12 N         139.7604  140.0053  167.2506 N.3     1  UNL1       -0.2686
     13 C         140.9788  140.5019  166.5303 C.3     1  UNL1        0.0938
     14 C         141.1336  140.2537  165.0591 C.3     1  UNL1        0.1079
     15 N         140.0699  139.5089  164.3082 N.pl3   1  UNL1       -0.3076
     16 C         138.8515  139.0124  165.0285 C.3     1  UNL1        0.1079
     17 C         138.6967  139.2605  166.4998 C.3     1  UNL1        0.0938
     18 N         143.0999  137.1782  157.4519 N.pl3   1  UNL1       -0.1848
     19 H         143.8494  137.7009  157.0855 H       1  UNL1        0.2530
     20 C         142.7570  135.8430  156.8607 C.ar    1  UNL1        0.1936
     21 C         141.8127  135.7576  155.6984 C.ar    1  UNL1        0.0522
     22 C         141.4697  134.4224  155.1072 C.ar    1  UNL1        0.0126
     23 C         142.0712  133.1725  155.6782 C.ar    1  UNL1        0.0539
     24 BR        141.7283  131.8373  155.0869 Br      1  UNL1       -0.0474
     25 C         143.0156  133.2579  156.8405 C.ar    1  UNL1        0.1083
     26 N         143.3585  134.5931  157.4317 N.ar    1  UNL1       -0.2144
@<TRIPOS>BOND
     1    11    12    1
     2    12    13    1
     3    13    14    1
     4    14    15    1
     5    15     1    1
     6     1     2    2
     7     2     3    1
     8     3     4    1
     9     3     5    2
    10     5     6    1
    11     6     7    2
    12     7    18    1
    13    18    20    1
    14    20    21   ar
    15    21    22   ar
    16    22    23   ar
    17    23    24    1
    18    23    25   ar
    19    25    26   ar
    20     7     8    1
    21     8     9    2
    22     9    10    1
    23    15    16    1
    24    16    17    1
    25    17    12    1
    26    10     1    1
    27     9     5    1
    28    26    20   ar
    29    18    19    1
