@<TRIPOS>MOLECULE
*****
 21 22 0 0 0
SMALL
GASTEIGER

@<TRIPOS>ATOM
      1 C         141.4361  141.7461  169.7524 C.ar    1  UNL1        0.1219
      2 C         141.7172  141.0589  168.4491 C.ar    1  UNL1        0.0230
      3 C         140.6879  140.1523  167.8419 C.ar    1  UNL1        0.0383
      4 C         139.3776  139.9328  168.5380 C.ar    1  UNL1        0.1387
      5 C         139.0964  140.6200  169.8414 C.ar    1  UNL1        0.0383
      6 C         140.1257  141.5266  170.4486 C.ar    1  UNL1        0.0230
      7 N         143.4946  143.5594  170.9667 N.3     1  UNL1       -0.2035
      8 S         142.4653  142.6527  170.3596 S.O2    1  UNL1        0.0572
      9 O         143.1265  142.7986  169.0211 O.2     1  UNL1       -0.1532
     10 O         141.8042  142.5069  171.6981 O.2     1  UNL1       -0.1532
     11 H         143.2721  143.7160  171.9498 H       1  UNL1        0.1442
     12 H         143.4961  144.4514  170.4721 H       1  UNL1        0.1442
     13 O         138.3483  139.0262  167.9309 O.3     1  UNL1       -0.4740
     14 C         138.1619  138.9935  166.4429 C.3     1  UNL1        0.2226
     15 C         138.4411  137.7327  165.6796 C.3     1  UNL1        0.1200
     16 N         139.3684  137.7594  164.5008 N.3     1  UNL1       -0.2696
     17 C         140.8512  137.6759  164.7110 C.3     1  UNL1        0.0722
     18 C         141.7785  137.7026  163.5322 C.3     1  UNL1        0.0174
     19 C         141.2229  137.8128  162.1432 C.3     1  UNL1        0.0029
     20 C         139.7400  137.8963  161.9331 C.3     1  UNL1        0.0174
     21 C         138.8128  137.8696  163.1119 C.3     1  UNL1        0.0722
@<TRIPOS>BOND
     1     7     8    1
     2     8     9    2
     3     8    10    2
     4     8     1    1
     5     1     2   ar
     6     2     3   ar
     7     3     4   ar
     8     4    13    1
     9    13    14    1
    10    14    15    1
    11    15    16    1
    12    16    17    1
    13    17    18    1
    14    18    19    1
    15    19    20    1
    16    20    21    1
    17     4     5   ar
    18     5     6   ar
    19     6     1   ar
    20    21    16    1
    21     7    11    1
    22     7    12    1
@<TRIPOS>MOLECULE
*****
 21 22 0 0 0
SMALL
GASTEIGER

@<TRIPOS>ATOM
      1 C         140.8683  140.0549  169.1543 C.ar    1  UNL1        0.1219
      2 C         139.6306  140.0822  168.3073 C.ar    1  UNL1        0.0230
      3 C         139.7179  139.7754  166.8416 C.ar    1  UNL1        0.0383
      4 C         141.0428  139.4413  166.2229 C.ar    1  UNL1        0.1387
      5 C         142.2805  139.4141  167.0698 C.ar    1  UNL1        0.0383
      6 C         142.1932  139.7208  168.5355 C.ar    1  UNL1        0.0230
      7 N         140.6938  140.6684  172.0857 N.3     1  UNL1       -0.2035
      8 S         140.7810  140.3617  170.6200 S.O2    1  UNL1        0.0572
      9 O         142.1472  140.9793  170.5720 O.2     1  UNL1       -0.1532
     10 O         139.4149  139.7441  170.6679 O.2     1  UNL1       -0.1532
     11 H         139.7766  140.3927  172.4367 H       1  UNL1        0.1442
     12 H         140.8272  141.6690  172.2321 H       1  UNL1        0.1442
     13 O         141.1300  139.1346  164.7572 O.3     1  UNL1       -0.4740
     14 C         141.4475  140.2272  163.7798 C.3     1  UNL1        0.2226
     15 C         141.5210  141.6514  164.2448 C.3     1  UNL1        0.1200
     16 N         140.2678  142.4674  164.3630 N.3     1  UNL1       -0.2696
     17 C         138.9606  141.9076  163.8860 C.3     1  UNL1        0.0722
     18 C         137.7074  142.7235  164.0042 C.3     1  UNL1        0.0174
     19 C         137.7616  144.0993  164.5995 C.3     1  UNL1        0.0029
     20 C         139.0689  144.6591  165.0765 C.3     1  UNL1        0.0174
     21 C         140.3220  143.8432  164.9583 C.3     1  UNL1        0.0722
@<TRIPOS>BOND
     1     7     8    1
     2     8     9    2
     3     8    10    2
     4     8     1    1
     5     1     2   ar
     6     2     3   ar
     7     3     4   ar
     8     4    13    1
     9    13    14    1
    10    14    15    1
    11    15    16    1
    12    16    17    1
    13    17    18    1
    14    18    19    1
    15    19    20    1
    16    20    21    1
    17     4     5   ar
    18     5     6   ar
    19     6     1   ar
    20    21    16    1
    21     7    11    1
    22     7    12    1
@<TRIPOS>MOLECULE
*****
 21 22 0 0 0
SMALL
GASTEIGER

@<TRIPOS>ATOM
      1 C         140.8384  140.0701  169.1412 C.ar    1  UNL1        0.1219
      2 C         142.1409  139.7212  168.4843 C.ar    1  UNL1        0.0230
      3 C         142.1876  139.4457  167.0105 C.ar    1  UNL1        0.0383
      4 C         140.9317  139.5191  166.1937 C.ar    1  UNL1        0.1387
      5 C         139.6291  139.8680  166.8506 C.ar    1  UNL1        0.0383
      6 C         139.5825  140.1435  168.3244 C.ar    1  UNL1        0.0230
      7 N         140.7451  140.6212  172.0887 N.3     1  UNL1       -0.2035
      8 S         140.7918  140.3456  170.6149 S.O2    1  UNL1        0.0572
      9 O         142.2070  140.8406  170.5672 O.2     1  UNL1       -0.1532
     10 O         139.3766  139.8507  170.6627 O.2     1  UNL1       -0.1532
     11 H         139.8102  140.4190  172.4430 H       1  UNL1        0.1442
     12 H         140.9684  141.6019  172.2585 H       1  UNL1        0.1442
     13 O         140.9783  139.2436  164.7200 O.3     1  UNL1       -0.4740
     14 C         141.5207  140.2792  163.7802 C.3     1  UNL1        0.2226
     15 C         141.5555  141.7211  164.1921 C.3     1  UNL1        0.1200
     16 N         140.2769  142.4941  164.3253 N.3     1  UNL1       -0.2696
     17 C         140.2425  143.7519  165.1418 C.3     1  UNL1        0.0722
     18 C         138.9639  144.5249  165.2750 C.3     1  UNL1        0.0174
     19 C         137.7197  144.0400  164.5918 C.3     1  UNL1        0.0029
     20 C         137.7541  142.7821  163.7753 C.3     1  UNL1        0.0174
     21 C         139.0327  142.0092  163.6421 C.3     1  UNL1        0.0722
@<TRIPOS>BOND
     1     7     8    1
     2     8     9    2
     3     8    10    2
     4     8     1    1
     5     1     2   ar
     6     2     3   ar
     7     3     4   ar
     8     4    13    1
     9    13    14    1
    10    14    15    1
    11    15    16    1
    12    16    17    1
    13    17    18    1
    14    18    19    1
    15    19    20    1
    16    20    21    1
    17     4     5   ar
    18     5     6   ar
    19     6     1   ar
    20    21    16    1
    21     7    11    1
    22     7    12    1
@<TRIPOS>MOLECULE
*****
 21 22 0 0 0
SMALL
GASTEIGER

@<TRIPOS>ATOM
      1 C         140.7508  140.0746  169.1537 C.ar    1  UNL1        0.1219
      2 C         139.4552  140.1082  168.3985 C.ar    1  UNL1        0.0230
      3 C         139.4419  139.8540  166.9203 C.ar    1  UNL1        0.0383
      4 C         140.7241  139.5661  166.1972 C.ar    1  UNL1        0.1387
      5 C         142.0197  139.5324  166.9524 C.ar    1  UNL1        0.0383
      6 C         142.0330  139.7867  168.4306 C.ar    1  UNL1        0.0230
      7 N         140.7775  140.5831  172.1102 N.3     1  UNL1       -0.2035
      8 S         140.7641  140.3289  170.6319 S.O2    1  UNL1        0.0572
      9 O         139.3801  139.7610  170.7421 O.2     1  UNL1       -0.1532
     10 O         142.1481  140.8967  170.5218 O.2     1  UNL1       -0.1532
     11 H         141.6880  140.9529  172.3833 H       1  UNL1        0.1442
     12 H         140.6023  139.7097  172.6070 H       1  UNL1        0.1442
     13 O         140.7108  139.3118  164.7190 O.3     1  UNL1       -0.4740
     14 C         139.4326  139.4484  163.9460 C.3     1  UNL1        0.2226
     15 C         139.1977  140.6598  163.0931 C.3     1  UNL1        0.1200
     16 N         139.1389  142.0202  163.7225 N.3     1  UNL1       -0.2696
     17 C         140.4068  142.7643  164.0202 C.3     1  UNL1        0.0722
     18 C         140.3480  144.1246  164.6495 C.3     1  UNL1        0.0174
     19 C         139.0212  144.7408  164.9811 C.3     1  UNL1        0.0029
     20 C         137.7533  143.9967  164.6834 C.3     1  UNL1        0.0174
     21 C         137.8121  142.6364  164.0541 C.3     1  UNL1        0.0722
@<TRIPOS>BOND
     1     7     8    1
     2     8     9    2
     3     8    10    2
     4     8     1    1
     5     1     2   ar
     6     2     3   ar
     7     3     4   ar
     8     4    13    1
     9    13    14    1
    10    14    15    1
    11    15    16    1
    12    16    17    1
    13    17    18    1
    14    18    19    1
    15    19    20    1
    16    20    21    1
    17     4     5   ar
    18     5     6   ar
    19     6     1   ar
    20    21    16    1
    21     7    11    1
    22     7    12    1
@<TRIPOS>MOLECULE
*****
 21 22 0 0 0
SMALL
GASTEIGER

@<TRIPOS>ATOM
      1 C         142.6674  140.7992  168.9596 C.ar    1  UNL1        0.1219
      2 C         142.8905  142.1162  168.2772 C.ar    1  UNL1        0.0230
      3 C         143.0766  142.1682  166.7897 C.ar    1  UNL1        0.0383
      4 C         143.0396  140.9032  165.9846 C.ar    1  UNL1        0.1387
      5 C         142.8164  139.5862  166.6669 C.ar    1  UNL1        0.0383
      6 C         142.6304  139.5342  168.1544 C.ar    1  UNL1        0.0230
      7 N         142.2952  140.6952  171.9346 N.3     1  UNL1       -0.2035
      8 S         142.4813  140.7472  170.4471 S.O2    1  UNL1        0.0572
      9 O         143.3574  139.5315  170.5142 O.2     1  UNL1       -0.1532
     10 O         141.6053  141.9630  170.3800 O.2     1  UNL1       -0.1532
     11 H         141.7376  141.4945  172.2356 H       1  UNL1        0.1442
     12 H         143.2062  140.7245  172.3924 H       1  UNL1        0.1442
     13 O         143.2256  140.9552  164.4971 O.3     1  UNL1       -0.4740
     14 C         142.0363  140.8561  163.5885 C.3     1  UNL1        0.2226
     15 C         140.6621  141.1413  164.1180 C.3     1  UNL1        0.1200
     16 N         139.8686  140.0491  164.7719 N.3     1  UNL1       -0.2696
     17 C         139.7571  138.7060  164.1135 C.3     1  UNL1        0.0722
     18 C         138.9636  137.6137  164.7674 C.3     1  UNL1        0.0174
     19 C         138.2817  137.8647  166.0796 C.3     1  UNL1        0.0029
     20 C         138.3933  139.2079  166.7380 C.3     1  UNL1        0.0174
     21 C         139.1867  140.3001  166.0841 C.3     1  UNL1        0.0722
@<TRIPOS>BOND
     1     7     8    1
     2     8     9    2
     3     8    10    2
     4     8     1    1
     5     1     2   ar
     6     2     3   ar
     7     3     4   ar
     8     4    13    1
     9    13    14    1
    10    14    15    1
    11    15    16    1
    12    16    17    1
    13    17    18    1
    14    18    19    1
    15    19    20    1
    16    20    21    1
    17     4     5   ar
    18     5     6   ar
    19     6     1   ar
    20    21    16    1
    21     7    11    1
    22     7    12    1
@<TRIPOS>MOLECULE
*****
 21 22 0 0 0
SMALL
GASTEIGER

@<TRIPOS>ATOM
      1 C         142.0849  141.9747  169.1848 C.ar    1  UNL1        0.1219
      2 C         142.8613  141.6097  167.9544 C.ar    1  UNL1        0.0230
      3 C         142.2742  140.6622  166.9507 C.ar    1  UNL1        0.0383
      4 C         140.9106  140.0798  167.1772 C.ar    1  UNL1        0.1387
      5 C         140.1342  140.4448  168.4076 C.ar    1  UNL1        0.0383
      6 C         140.7213  141.3923  169.4114 C.ar    1  UNL1        0.0230
      7 N         143.2592  143.8697  171.1924 N.3     1  UNL1       -0.2035
      8 S         142.6720  142.9222  170.1886 S.O2    1  UNL1        0.0572
      9 O         144.0264  142.7374  169.5709 O.2     1  UNL1       -0.1532
     10 O         141.3177  143.1070  170.8063 O.2     1  UNL1       -0.1532
     11 H         142.5154  144.2458  171.7804 H       1  UNL1        0.1442
     12 H         143.7270  144.6341  170.7053 H       1  UNL1        0.1442
     13 O         140.3235  139.1323  166.1734 O.3     1  UNL1       -0.4740
     14 C         139.0442  139.4808  165.4721 C.3     1  UNL1        0.2226
     15 C         139.0704  140.3608  164.2576 C.3     1  UNL1        0.1200
     16 N         139.0937  141.8527  164.4128 N.3     1  UNL1       -0.2696
     17 C         137.8066  142.6195  164.4843 C.3     1  UNL1        0.0722
     18 C         137.8299  144.1113  164.6395 C.3     1  UNL1        0.0174
     19 C         139.1404  144.8362  164.7232 C.3     1  UNL1        0.0029
     20 C         140.4276  144.0693  164.6517 C.3     1  UNL1        0.0174
     21 C         140.4042  142.5776  164.4965 C.3     1  UNL1        0.0722
@<TRIPOS>BOND
     1     7     8    1
     2     8     9    2
     3     8    10    2
     4     8     1    1
     5     1     2   ar
     6     2     3   ar
     7     3     4   ar
     8     4    13    1
     9    13    14    1
    10    14    15    1
    11    15    16    1
    12    16    17    1
    13    17    18    1
    14    18    19    1
    15    19    20    1
    16    20    21    1
    17     4     5   ar
    18     5     6   ar
    19     6     1   ar
    20    21    16    1
    21     7    11    1
    22     7    12    1
@<TRIPOS>MOLECULE
*****
 21 22 0 0 0
SMALL
GASTEIGER

@<TRIPOS>ATOM
      1 C         140.6724  141.9931  169.4323 C.ar    1  UNL1        0.1219
      2 C         141.9100  142.6433  168.8888 C.ar    1  UNL1        0.0230
      3 C         142.7459  141.9295  167.8682 C.ar    1  UNL1        0.0383
      4 C         142.3442  140.5653  167.3911 C.ar    1  UNL1        0.1387
      5 C         141.1066  139.9151  167.9346 C.ar    1  UNL1        0.0383
      6 C         140.2707  140.6289  168.9552 C.ar    1  UNL1        0.0230
      7 N         139.0007  143.4208  171.4736 N.3     1  UNL1       -0.2035
      8 S         139.8366  142.7069  170.4530 S.O2    1  UNL1        0.0572
      9 O         138.9283  141.5164  170.5418 O.2     1  UNL1       -0.1532
     10 O         140.7448  143.8974  170.3641 O.2     1  UNL1       -0.1532
     11 H         139.4245  144.3232  171.6892 H       1  UNL1        0.1442
     12 H         138.9474  142.8585  172.3230 H       1  UNL1        0.1442
     13 O         143.1801  139.8515  166.3704 O.3     1  UNL1       -0.4740
     14 C         142.9718  140.1203  164.9095 C.3     1  UNL1        0.2226
     15 C         143.7838  141.1749  164.2178 C.3     1  UNL1        0.1200
     16 N         143.2424  142.5669  164.0780 N.3     1  UNL1       -0.2696
     17 C         141.7930  142.8389  164.3525 C.3     1  UNL1        0.0722
     18 C         141.2516  144.2309  164.2127 C.3     1  UNL1        0.0174
     19 C         142.1596  145.3507  163.7985 C.3     1  UNL1        0.0029
     20 C         143.6090  145.0786  163.5240 C.3     1  UNL1        0.0174
     21 C         144.1503  143.6867  163.6638 C.3     1  UNL1        0.0722
@<TRIPOS>BOND
     1     7     8    1
     2     8     9    2
     3     8    10    2
     4     8     1    1
     5     1     2   ar
     6     2     3   ar
     7     3     4   ar
     8     4    13    1
     9    13    14    1
    10    14    15    1
    11    15    16    1
    12    16    17    1
    13    17    18    1
    14    18    19    1
    15    19    20    1
    16    20    21    1
    17     4     5   ar
    18     5     6   ar
    19     6     1   ar
    20    21    16    1
    21     7    11    1
    22     7    12    1
@<TRIPOS>MOLECULE
*****
 21 22 0 0 0
SMALL
GASTEIGER

@<TRIPOS>ATOM
      1 C         140.5551  142.1420  169.2555 C.ar    1  UNL1        0.1219
      2 C         141.8944  142.7002  168.8756 C.ar    1  UNL1        0.0230
      3 C         142.6535  142.1104  167.7241 C.ar    1  UNL1        0.0383
      4 C         142.0732  140.9624  166.9525 C.ar    1  UNL1        0.1387
      5 C         140.7339  140.4042  167.3325 C.ar    1  UNL1        0.0383
      6 C         139.9748  140.9940  168.4840 C.ar    1  UNL1        0.0230
      7 N         139.0369  143.3216  171.5585 N.3     1  UNL1       -0.2035
      8 S         139.7960  142.7318  170.4070 S.O2    1  UNL1        0.0572
      9 O         140.6383  143.9704  170.3279 O.2     1  UNL1       -0.1532
     10 O         138.9536  141.4932  170.4861 O.2     1  UNL1       -0.1532
     11 H         138.2888  142.6853  171.8341 H       1  UNL1        0.1442
     12 H         138.6360  144.2167  171.2786 H       1  UNL1        0.1442
     13 O         142.8323  140.3727  165.8011 O.3     1  UNL1       -0.4740
     14 C         142.7124  140.9791  164.4344 C.3     1  UNL1        0.2226
     15 C         141.3923  140.9683  163.7223 C.3     1  UNL1        0.1200
     16 N         140.3420  141.9799  164.0742 N.3     1  UNL1       -0.2696
     17 C         140.7406  143.3794  164.4380 C.3     1  UNL1        0.0722
     18 C         139.6904  144.3909  164.7898 C.3     1  UNL1        0.0174
     19 C         138.2415  144.0029  164.7779 C.3     1  UNL1        0.0029
     20 C         137.8428  142.6033  164.4141 C.3     1  UNL1        0.0174
     21 C         138.8931  141.5918  164.0622 C.3     1  UNL1        0.0722
@<TRIPOS>BOND
     1     7     8    1
     2     8     9    2
     3     8    10    2
     4     8     1    1
     5     1     2   ar
     6     2     3   ar
     7     3     4   ar
     8     4    13    1
     9    13    14    1
    10    14    15    1
    11    15    16    1
    12    16    17    1
    13    17    18    1
    14    18    19    1
    15    19    20    1
    16    20    21    1
    17     4     5   ar
    18     5     6   ar
    19     6     1   ar
    20    21    16    1
    21     7    11    1
    22     7    12    1
@<TRIPOS>MOLECULE
*****
 21 22 0 0 0
SMALL
GASTEIGER

@<TRIPOS>ATOM
      1 C         142.4321  140.7878  168.8693 C.ar    1  UNL1        0.1219
      2 C         142.6497  139.5269  168.0865 C.ar    1  UNL1        0.0230
      3 C         142.6804  139.5706  166.5874 C.ar    1  UNL1        0.0383
      4 C         142.4935  140.8752  165.8712 C.ar    1  UNL1        0.1387
      5 C         142.2759  142.1360  166.6539 C.ar    1  UNL1        0.0383
      6 C         142.2452  142.0923  168.1530 C.ar    1  UNL1        0.0230
      7 N         142.3707  140.7004  171.8674 N.3     1  UNL1       -0.2035
      8 S         142.4014  140.7441  170.3683 S.O2    1  UNL1        0.0572
      9 O         141.5853  142.0025  170.3883 O.2     1  UNL1       -0.1532
     10 O         143.2175  139.4856  170.3483 O.2     1  UNL1       -0.1532
     11 H         142.8388  139.8544  172.1925 H       1  UNL1        0.1442
     12 H         141.4023  140.6976  172.1877 H       1  UNL1        0.1442
     13 O         142.5242  140.9189  164.3721 O.3     1  UNL1       -0.4740
     14 C         142.8674  142.1969  163.6659 C.3     1  UNL1        0.2226
     15 C         141.8184  142.9230  162.8771 C.3     1  UNL1        0.1200
     16 N         140.5009  143.2578  163.5113 N.3     1  UNL1       -0.2696
     17 C         140.3557  144.5116  164.3218 C.3     1  UNL1        0.0722
     18 C         139.0382  144.8465  164.9560 C.3     1  UNL1        0.0174
     19 C         137.8659  143.9275  164.7797 C.3     1  UNL1        0.0029
     20 C         138.0111  142.6737  163.9691 C.3     1  UNL1        0.0174
     21 C         139.3285  142.3389  163.3350 C.3     1  UNL1        0.0722
@<TRIPOS>BOND
     1     7     8    1
     2     8     9    2
     3     8    10    2
     4     8     1    1
     5     1     2   ar
     6     2     3   ar
     7     3     4   ar
     8     4    13    1
     9    13    14    1
    10    14    15    1
    11    15    16    1
    12    16    17    1
    13    17    18    1
    14    18    19    1
    15    19    20    1
    16    20    21    1
    17     4     5   ar
    18     5     6   ar
    19     6     1   ar
    20    21    16    1
    21     7    11    1
    22     7    12    1
