@<TRIPOS>MOLECULE
*****
 33 37 0 0 0
SMALL
GASTEIGER

@<TRIPOS>ATOM
      1 C         142.2405  139.2843  162.0974 C.3     1  UNL1        0.0747
      2 C         143.0697  138.6309  163.1630 C.3     1  UNL1        0.0369
      3 C         143.4573  139.4019  164.3899 C.3     1  UNL1        0.0741
      4 N         143.0156  140.8263  164.5513 N.3     1  UNL1       -0.2691
      5 C         142.1864  141.4797  163.4858 C.3     1  UNL1        0.0741
      6 C         141.7988  140.7087  162.2588 C.3     1  UNL1        0.0369
      7 O         144.1081  139.1580  159.7530 O.2     1  UNL1       -0.2668
      8 C         142.7867  138.4502  159.6983 C.2     1  UNL1        0.2806
      9 N         141.8529  138.5134  160.8705 N.am    1  UNL1       -0.2999
     10 H         140.9857  138.0488  160.8346 H       1  UNL1        0.1498
     11 C         142.3991  137.6792  158.4713 C.ar    1  UNL1        0.2014
     12 C         141.2408  138.1347  157.6341 C.ar    1  UNL1        0.0843
     13 C         140.8531  137.3638  156.4072 C.ar    1  UNL1        0.2018
     14 O         139.6948  137.8193  155.5701 O.2     1  UNL1       -0.2864
     15 C         141.6238  136.1373  156.0174 C.ar    1  UNL1        0.0737
     16 C         141.2361  135.3664  154.7905 C.ar    1  UNL1        0.0085
     17 C         142.0068  134.1400  154.4008 C.ar    1  UNL1        0.0299
     18 C         143.1651  133.6845  155.2380 C.ar    1  UNL1        0.1432
     19 F         143.9357  132.4580  154.8482 F       1  UNL1       -0.2041
     20 C         143.5527  134.4554  156.4649 C.ar    1  UNL1        0.0672
     21 C         142.7821  135.6818  156.8546 C.ar    1  UNL1        0.1508
     22 O         143.1697  136.4528  158.0816 O.2     1  UNL1       -0.4486
     23 C         143.4032  141.5972  165.7783 C.3     1  UNL1        0.0952
     24 C         142.5494  141.5261  167.0095 C.2     1  UNL1       -0.0224
     25 C         142.9262  142.3127  168.2299 C.2     1  UNL1       -0.0036
     26 C         142.0725  142.2416  169.4612 C.2     1  UNL1        0.0381
     27 C         140.8419  141.3840  169.4721 C.2     1  UNL1        0.1616
     28 O         139.8138  141.1171  170.5312 O.3     1  UNL1       -0.4079
     29 C         138.8016  140.1656  169.9655 C.2     1  UNL1        0.4298
     30 O         137.5982  139.6294  170.6827 O.2     1  UNL1       -0.2238
     31 N         139.2041  139.8444  168.5566 N.am    1  UNL1       -0.1431
     32 C         140.4651  140.5975  168.2517 C.2     1  UNL1        0.0930
     33 C         141.3188  140.6686  167.0204 C.3     1  UNL1        0.0698
@<TRIPOS>BOND
     1     7     8    2
     2     8     9   am
     3     9     1    1
     4     1     2    1
     5     2     3    1
     6     3     4    1
     7     4    23    1
     8    23    24    1
     9    24    25    2
    10    25    26    1
    11    26    27    2
    12    27    28    1
    13    28    29    1
    14    29    30    2
    15    29    31    1
    16    31    32    2
    17    32    33    1
    18     4     5    1
    19     5     6    1
    20     8    11    1
    21    11    12   ar
    22    12    13   ar
    23    13    14    2
    24    13    15   ar
    25    15    16   ar
    26    16    17   ar
    27    17    18   ar
    28    18    19    1
    29    18    20   ar
    30    20    21   ar
    31    21    22   ar
    32     6     1    1
    33    22    11   ar
    34    33    24    1
    35    21    15   ar
    36    32    27    1
    37     9    10    1
@<TRIPOS>MOLECULE
*****
 33 37 0 0 0
SMALL
GASTEIGER

@<TRIPOS>ATOM
      1 C         142.6155  138.5283  161.5493 C.3     1  UNL1        0.0747
      2 C         143.9956  138.5940  162.1331 C.3     1  UNL1        0.0369
      3 C         144.2857  139.5297  163.2690 C.3     1  UNL1        0.0741
      4 N         143.1956  140.3997  163.8211 N.3     1  UNL1       -0.2691
      5 C         141.8155  140.3341  163.2373 C.3     1  UNL1        0.0741
      6 C         141.5254  139.3983  162.1013 C.3     1  UNL1        0.0369
      7 O         143.5603  139.1920  158.7804 O.2     1  UNL1       -0.2668
      8 C         142.7978  137.9244  159.0290 C.2     1  UNL1        0.2806
      9 N         142.3254  137.5926  160.4134 N.am    1  UNL1       -0.2999
     10 H         141.8249  136.7606  160.5766 H       1  UNL1        0.1498
     11 C         142.5076  136.9886  157.8931 C.ar    1  UNL1        0.2014
     12 C         141.3979  137.2969  156.9321 C.ar    1  UNL1        0.0843
     13 C         141.1077  136.3612  155.7963 C.ar    1  UNL1        0.2018
     14 O         139.9980  136.6695  154.8354 O.2     1  UNL1       -0.2864
     15 C         141.9273  135.1171  155.6213 C.ar    1  UNL1        0.0737
     16 C         141.6372  134.1814  154.4855 C.ar    1  UNL1        0.0085
     17 C         142.4568  132.9374  154.3105 C.ar    1  UNL1        0.0299
     18 C         143.5666  132.6291  155.2715 C.ar    1  UNL1        0.1432
     19 F         144.3862  131.3850  155.0965 F       1  UNL1       -0.2041
     20 C         143.8567  133.5648  156.4073 C.ar    1  UNL1        0.0672
     21 C         143.0371  134.8088  156.5822 C.ar    1  UNL1        0.1508
     22 O         143.3272  135.7446  157.7181 O.2     1  UNL1       -0.4486
     23 C         143.4857  141.3355  164.9570 C.3     1  UNL1        0.0952
     24 C         142.9892  141.0174  166.3362 C.2     1  UNL1       -0.0224
     25 C         142.9865  139.5989  166.8238 C.2     1  UNL1       -0.0036
     26 C         142.4900  139.2808  168.2030 C.2     1  UNL1        0.0381
     27 C         141.9962  140.3813  169.0947 C.2     1  UNL1        0.1616
     28 O         141.4517  140.3726  170.4923 O.3     1  UNL1       -0.4079
     29 C         141.1178  141.7857  170.8686 C.2     1  UNL1        0.4298
     30 O         140.5461  142.2374  172.1798 O.2     1  UNL1       -0.2238
     31 N         141.4561  142.6678  169.7035 N.am    1  UNL1       -0.1431
     32 C         141.9990  141.7998  168.6072 C.2     1  UNL1        0.0930
     33 C         142.4955  142.1178  167.2279 C.3     1  UNL1        0.0698
@<TRIPOS>BOND
     1     7     8    2
     2     8     9   am
     3     9     1    1
     4     1     2    1
     5     2     3    1
     6     3     4    1
     7     4    23    1
     8    23    24    1
     9    24    25    2
    10    25    26    1
    11    26    27    2
    12    27    28    1
    13    28    29    1
    14    29    30    2
    15    29    31    1
    16    31    32    2
    17    32    33    1
    18     4     5    1
    19     5     6    1
    20     8    11    1
    21    11    12   ar
    22    12    13   ar
    23    13    14    2
    24    13    15   ar
    25    15    16   ar
    26    16    17   ar
    27    17    18   ar
    28    18    19    1
    29    18    20   ar
    30    20    21   ar
    31    21    22   ar
    32     6     1    1
    33    22    11   ar
    34    33    24    1
    35    21    15   ar
    36    32    27    1
    37     9    10    1
@<TRIPOS>MOLECULE
*****
 33 37 0 0 0
SMALL
GASTEIGER

@<TRIPOS>ATOM
      1 C         140.6332  139.2948  160.9815 C.3     1  UNL1        0.0747
      2 C         139.5352  138.7744  160.1019 C.3     1  UNL1        0.0369
      3 C         139.8384  138.3498  158.6956 C.3     1  UNL1        0.0741
      4 N         141.2396  138.4456  158.1688 N.3     1  UNL1       -0.2691
      5 C         142.3376  138.9659  159.0484 C.3     1  UNL1        0.0741
      6 C         142.0343  139.3905  160.4548 C.3     1  UNL1        0.0369
      7 O         140.5420  137.2535  163.1780 O.2     1  UNL1       -0.2668
      8 C         140.2844  138.6987  163.4861 C.2     1  UNL1        0.2806
      9 N         140.3299  139.7194  162.3878 N.am    1  UNL1       -0.2999
     10 H         140.1609  140.6679  162.5900 H       1  UNL1        0.1498
     11 C         139.9811  139.1234  164.8924 C.ar    1  UNL1        0.2014
     12 C         138.8332  138.5030  165.6322 C.ar    1  UNL1        0.0843
     13 C         138.5299  138.9276  167.0385 C.ar    1  UNL1        0.2018
     14 O         137.3820  138.3071  167.7783 O.2     1  UNL1       -0.2864
     15 C         139.3747  139.9727  167.7051 C.ar    1  UNL1        0.0737
     16 C         139.0714  140.3973  169.1114 C.ar    1  UNL1        0.0085
     17 C         139.9161  141.4423  169.7779 C.ar    1  UNL1        0.0299
     18 C         141.0641  142.0628  169.0381 C.ar    1  UNL1        0.1432
     19 F         141.9088  143.1079  169.7047 F       1  UNL1       -0.2041
     20 C         141.3673  141.6382  167.6318 C.ar    1  UNL1        0.0672
     21 C         140.5226  140.5931  166.9653 C.ar    1  UNL1        0.1508
     22 O         140.8258  140.1684  165.5589 O.2     1  UNL1       -0.4486
     23 C         141.5428  138.0210  156.7625 C.3     1  UNL1        0.0952
     24 C         141.8399  136.5819  156.4610 C.2     1  UNL1       -0.0224
     25 C         141.0445  135.8545  155.4179 C.2     1  UNL1       -0.0036
     26 C         141.3415  134.4154  155.1165 C.2     1  UNL1        0.0381
     27 C         142.4339  133.7038  155.8581 C.2     1  UNL1        0.1616
     28 O         142.9511  132.2981  155.7776 O.3     1  UNL1       -0.4079
     29 C         144.0662  132.1567  156.7709 C.2     1  UNL1        0.4298
     30 O         144.8684  130.9150  157.0251 O.2     1  UNL1       -0.2238
     31 N         144.2382  133.4751  157.4654 N.am    1  UNL1       -0.1431
     32 C         143.2293  134.4312  156.9013 C.2     1  UNL1        0.0930
     33 C         142.9323  135.8703  157.2027 C.3     1  UNL1        0.0698
@<TRIPOS>BOND
     1     7     8    2
     2     8     9   am
     3     9     1    1
     4     1     2    1
     5     2     3    1
     6     3     4    1
     7     4    23    1
     8    23    24    1
     9    24    25    2
    10    25    26    1
    11    26    27    2
    12    27    28    1
    13    28    29    1
    14    29    30    2
    15    29    31    1
    16    31    32    2
    17    32    33    1
    18     4     5    1
    19     5     6    1
    20     8    11    1
    21    11    12   ar
    22    12    13   ar
    23    13    14    2
    24    13    15   ar
    25    15    16   ar
    26    16    17   ar
    27    17    18   ar
    28    18    19    1
    29    18    20   ar
    30    20    21   ar
    31    21    22   ar
    32     6     1    1
    33    22    11   ar
    34    33    24    1
    35    21    15   ar
    36    32    27    1
    37     9    10    1
@<TRIPOS>MOLECULE
*****
 33 37 0 0 0
SMALL
GASTEIGER

@<TRIPOS>ATOM
      1 C         140.7612  144.5562  158.5518 C.3     1  UNL1        0.0747
      2 C         141.8597  145.4275  158.0188 C.3     1  UNL1        0.0369
      3 C         141.8166  145.9033  156.5969 C.3     1  UNL1        0.0741
      4 N         140.6749  145.5078  155.7080 N.3     1  UNL1       -0.2691
      5 C         139.5764  144.6364  156.2410 C.3     1  UNL1        0.0741
      6 C         139.6196  144.1606  157.6629 C.3     1  UNL1        0.0369
      7 O         139.4529  146.1718  160.7146 O.2     1  UNL1       -0.2668
      8 C         140.1502  144.8882  161.0550 C.2     1  UNL1        0.2806
      9 N         140.8044  144.0804  159.9736 N.am    1  UNL1       -0.2999
     10 H         141.2621  143.2379  160.1971 H       1  UNL1        0.1498
     11 C         140.1934  144.4123  162.4769 C.ar    1  UNL1        0.2014
     12 C         139.2834  145.0240  163.5005 C.ar    1  UNL1        0.0843
     13 C         139.3266  144.5482  164.9223 C.ar    1  UNL1        0.2018
     14 O         138.4165  145.1599  165.9459 O.2     1  UNL1       -0.2864
     15 C         140.2798  143.4606  165.3207 C.ar    1  UNL1        0.0737
     16 C         140.3229  142.9848  166.7425 C.ar    1  UNL1        0.0085
     17 C         141.2761  141.8973  167.1408 C.ar    1  UNL1        0.0299
     18 C         142.1861  141.2856  166.1173 C.ar    1  UNL1        0.1432
     19 F         143.1393  140.1980  166.5156 F       1  UNL1       -0.2041
     20 C         142.1430  141.7614  164.6954 C.ar    1  UNL1        0.0672
     21 C         141.1898  142.8489  164.2971 C.ar    1  UNL1        0.1508
     22 O         141.1466  143.3248  162.8752 O.2     1  UNL1       -0.4486
     23 C         140.6317  145.9836  154.2861 C.3     1  UNL1        0.0952
     24 C         140.3557  147.4272  153.9864 C.2     1  UNL1       -0.0224
     25 C         140.8270  148.0286  152.6956 C.2     1  UNL1       -0.0036
     26 C         140.5510  149.4722  152.3959 C.2     1  UNL1        0.0381
     27 C         139.8036  150.3144  153.3868 C.2     1  UNL1        0.1616
     28 O         139.3873  151.7553  153.3676 O.3     1  UNL1       -0.4079
     29 C         138.6587  152.0445  154.6464 C.2     1  UNL1        0.4298
     30 O         138.0678  153.3642  155.0455 O.2     1  UNL1       -0.2238
     31 N         138.6246  150.7822  155.4561 N.am    1  UNL1       -0.1431
     32 C         139.3323  149.7130  154.6776 C.2     1  UNL1        0.0930
     33 C         139.6083  148.2694  154.9774 C.3     1  UNL1        0.0698
@<TRIPOS>BOND
     1     7     8    2
     2     8     9   am
     3     9     1    1
     4     1     2    1
     5     2     3    1
     6     3     4    1
     7     4    23    1
     8    23    24    1
     9    24    25    2
    10    25    26    1
    11    26    27    2
    12    27    28    1
    13    28    29    1
    14    29    30    2
    15    29    31    1
    16    31    32    2
    17    32    33    1
    18     4     5    1
    19     5     6    1
    20     8    11    1
    21    11    12   ar
    22    12    13   ar
    23    13    14    2
    24    13    15   ar
    25    15    16   ar
    26    16    17   ar
    27    17    18   ar
    28    18    19    1
    29    18    20   ar
    30    20    21   ar
    31    21    22   ar
    32     6     1    1
    33    22    11   ar
    34    33    24    1
    35    21    15   ar
    36    32    27    1
    37     9    10    1
@<TRIPOS>MOLECULE
*****
 33 37 0 0 0
SMALL
GASTEIGER

@<TRIPOS>ATOM
      1 C         138.6509  142.3535  161.2452 C.3     1  UNL1        0.0747
      2 C         137.9835  142.9672  162.4402 C.3     1  UNL1        0.0369
      3 C         137.8572  142.1841  163.7133 C.3     1  UNL1        0.0741
      4 N         138.3983  140.7872  163.7914 N.3     1  UNL1       -0.2691
      5 C         139.0656  140.1735  162.5964 C.3     1  UNL1        0.0741
      6 C         139.1919  140.9567  161.3232 C.3     1  UNL1        0.0369
      7 O         141.2940  143.5434  160.4720 O.2     1  UNL1       -0.2668
      8 C         140.0987  143.7316  159.5855 C.2     1  UNL1        0.2806
      9 N         138.7771  143.1367  159.9722 N.am    1  UNL1       -0.2999
     10 H         137.9926  143.2602  159.3903 H       1  UNL1        0.1498
     11 C         140.2250  144.5147  158.3124 C.ar    1  UNL1        0.2014
     12 C         141.0790  143.9954  157.1940 C.ar    1  UNL1        0.0843
     13 C         141.2053  144.7785  155.9209 C.ar    1  UNL1        0.2018
     14 O         142.0593  144.2591  154.8024 O.2     1  UNL1       -0.2864
     15 C         140.4775  146.0810  155.7662 C.ar    1  UNL1        0.0737
     16 C         140.6038  146.8641  154.4931 C.ar    1  UNL1        0.0085
     17 C         139.8761  148.1665  154.3385 C.ar    1  UNL1        0.0299
     18 C         139.0220  148.6859  155.4569 C.ar    1  UNL1        0.1432
     19 F         138.2943  149.9884  155.3022 F       1  UNL1       -0.2041
     20 C         138.8958  147.9028  156.7300 C.ar    1  UNL1        0.0672
     21 C         139.6235  146.6004  156.8846 C.ar    1  UNL1        0.1508
     22 O         139.4972  145.8172  158.1578 O.2     1  UNL1       -0.4486
     23 C         138.2720  140.0041  165.0644 C.3     1  UNL1        0.0952
     24 C         139.1865  140.2944  166.2174 C.2     1  UNL1       -0.0224
     25 C         138.8917  139.7203  167.5715 C.2     1  UNL1       -0.0036
     26 C         139.8062  140.0106  168.7245 C.2     1  UNL1        0.0381
     27 C         141.0154  140.8750  168.5235 C.2     1  UNL1        0.1616
     28 O         142.0905  141.3317  169.4646 O.3     1  UNL1       -0.4079
     29 C         143.0496  142.1881  168.6922 C.2     1  UNL1        0.4298
     30 O         144.2758  142.8548  169.2419 O.2     1  UNL1       -0.2238
     31 N         142.5674  142.2607  167.2737 N.am    1  UNL1       -0.1431
     32 C         141.3102  141.4492  167.1694 C.2     1  UNL1        0.0930
     33 C         140.3957  141.1588  166.0164 C.3     1  UNL1        0.0698
@<TRIPOS>BOND
     1     7     8    2
     2     8     9   am
     3     9     1    1
     4     1     2    1
     5     2     3    1
     6     3     4    1
     7     4    23    1
     8    23    24    1
     9    24    25    2
    10    25    26    1
    11    26    27    2
    12    27    28    1
    13    28    29    1
    14    29    30    2
    15    29    31    1
    16    31    32    2
    17    32    33    1
    18     4     5    1
    19     5     6    1
    20     8    11    1
    21    11    12   ar
    22    12    13   ar
    23    13    14    2
    24    13    15   ar
    25    15    16   ar
    26    16    17   ar
    27    17    18   ar
    28    18    19    1
    29    18    20   ar
    30    20    21   ar
    31    21    22   ar
    32     6     1    1
    33    22    11   ar
    34    33    24    1
    35    21    15   ar
    36    32    27    1
    37     9    10    1
@<TRIPOS>MOLECULE
*****
 33 37 0 0 0
SMALL
GASTEIGER

@<TRIPOS>ATOM
      1 C         139.0133  141.0469  162.4069 C.3     1  UNL1        0.0747
      2 C         137.9113  140.6736  163.3537 C.3     1  UNL1        0.0369
      3 C         138.2394  140.0521  164.6788 C.3     1  UNL1        0.0741
      4 N         139.6696  139.8038  165.0572 N.3     1  UNL1       -0.2691
      5 C         140.7715  140.1771  164.1105 C.3     1  UNL1        0.0741
      6 C         140.4434  140.7986  162.7853 C.3     1  UNL1        0.0369
      7 O         138.5482  139.3066  160.0079 O.2     1  UNL1       -0.2668
      8 C         138.4527  140.7982  159.8823 C.2     1  UNL1        0.2806
      9 N         138.6852  141.6684  161.0818 N.am    1  UNL1       -0.2999
     10 H         138.6225  142.6474  160.9993 H       1  UNL1        0.1498
     11 C         138.1246  141.4198  158.5571 C.ar    1  UNL1        0.2014
     12 C         138.8151  142.6806  158.1285 C.ar    1  UNL1        0.0843
     13 C         138.4871  143.3022  156.8034 C.ar    1  UNL1        0.2018
     14 O         139.1777  144.5629  156.3749 O.2     1  UNL1       -0.2864
     15 C         137.4684  142.6630  155.9068 C.ar    1  UNL1        0.0737
     16 C         137.1403  143.2846  154.5817 C.ar    1  UNL1        0.0085
     17 C         136.1217  142.6455  153.6852 C.ar    1  UNL1        0.0299
     18 C         135.4311  141.3848  154.1137 C.ar    1  UNL1        0.1432
     19 F         134.4124  140.7456  153.2171 F       1  UNL1       -0.2041
     20 C         135.7592  140.7632  155.4388 C.ar    1  UNL1        0.0672
     21 C         136.7778  141.4023  156.3354 C.ar    1  UNL1        0.1508
     22 O         137.1059  140.7807  157.6605 O.2     1  UNL1       -0.4486
     23 C         139.9977  139.1823  166.3824 C.3     1  UNL1        0.0952
     24 C         140.2926  140.0538  167.5671 C.2     1  UNL1       -0.0224
     25 C         139.3058  140.1484  168.6927 C.2     1  UNL1       -0.0036
     26 C         139.6007  141.0199  169.8774 C.2     1  UNL1        0.0381
     27 C         140.8825  141.7968  169.9365 C.2     1  UNL1        0.1616
     28 O         141.4434  142.7311  170.9672 O.3     1  UNL1       -0.4079
     29 C         142.7768  143.2139  170.4786 C.2     1  UNL1        0.4298
     30 O         143.6872  144.1656  171.1967 O.2     1  UNL1       -0.2238
     31 N         143.0401  142.5780  169.1458 N.am    1  UNL1       -0.1431
     32 C         141.8693  141.7021  168.8108 C.2     1  UNL1        0.0930
     33 C         141.5744  140.8306  167.6261 C.3     1  UNL1        0.0698
@<TRIPOS>BOND
     1     7     8    2
     2     8     9   am
     3     9     1    1
     4     1     2    1
     5     2     3    1
     6     3     4    1
     7     4    23    1
     8    23    24    1
     9    24    25    2
    10    25    26    1
    11    26    27    2
    12    27    28    1
    13    28    29    1
    14    29    30    2
    15    29    31    1
    16    31    32    2
    17    32    33    1
    18     4     5    1
    19     5     6    1
    20     8    11    1
    21    11    12   ar
    22    12    13   ar
    23    13    14    2
    24    13    15   ar
    25    15    16   ar
    26    16    17   ar
    27    17    18   ar
    28    18    19    1
    29    18    20   ar
    30    20    21   ar
    31    21    22   ar
    32     6     1    1
    33    22    11   ar
    34    33    24    1
    35    21    15   ar
    36    32    27    1
    37     9    10    1
@<TRIPOS>MOLECULE
*****
 33 37 0 0 0
SMALL
GASTEIGER

@<TRIPOS>ATOM
      1 C         142.4721  139.3196  161.8306 C.3     1  UNL1        0.0747
      2 C         143.7041  139.8004  161.1228 C.3     1  UNL1        0.0369
      3 C         143.8438  139.6029  159.6425 C.3     1  UNL1        0.0741
      4 N         142.7516  138.9244  158.8699 N.3     1  UNL1       -0.2691
      5 C         141.5196  138.4435  159.5777 C.3     1  UNL1        0.0741
      6 C         141.3799  138.6411  161.0581 C.3     1  UNL1        0.0369
      7 O         141.7580  142.0210  162.9226 O.2     1  UNL1       -0.2668
      8 C         141.9753  140.8679  163.8569 C.2     1  UNL1        0.2806
      9 N         142.3323  139.5171  163.3109 N.am    1  UNL1       -0.2999
     10 H         142.4749  138.7603  163.9242 H       1  UNL1        0.1498
     11 C         141.8355  141.0654  165.3373 C.ar    1  UNL1        0.2014
     12 C         142.8955  141.8047  166.0987 C.ar    1  UNL1        0.0843
     13 C         142.7558  142.0023  167.5790 C.ar    1  UNL1        0.2018
     14 O         143.8158  142.7417  168.3403 O.2     1  UNL1       -0.2864
     15 C         141.5560  141.4605  168.2980 C.ar    1  UNL1        0.0737
     16 C         141.4162  141.6580  169.7784 C.ar    1  UNL1        0.0085
     17 C         140.2165  141.1162  170.4973 C.ar    1  UNL1        0.0299
     18 C         139.1565  140.3768  169.7359 C.ar    1  UNL1        0.1432
     19 F         137.9566  139.8350  170.4550 F       1  UNL1       -0.2041
     20 C         139.2962  140.1793  168.2556 C.ar    1  UNL1        0.0672
     21 C         140.4959  140.7211  167.5367 C.ar    1  UNL1        0.1508
     22 O         140.6357  140.5236  166.0563 O.2     1  UNL1       -0.4486
     23 C         142.8914  138.7268  157.3896 C.3     1  UNL1        0.0952
     24 C         142.4083  137.4572  156.7534 C.2     1  UNL1       -0.0224
     25 C         141.3423  137.5050  155.6992 C.2     1  UNL1       -0.0036
     26 C         140.8592  136.2354  155.0631 C.2     1  UNL1        0.0381
     27 C         141.4420  134.9180  155.4811 C.2     1  UNL1        0.1616
     28 O         141.1674  133.5123  155.0356 O.3     1  UNL1       -0.4079
     29 C         142.0637  132.5957  155.8145 C.2     1  UNL1        0.4298
     30 O         142.1212  131.1021  155.6886 O.2     1  UNL1       -0.2238
     31 N         142.8922  133.4350  156.7414 N.am    1  UNL1       -0.1431
     32 C         142.5080  134.8703  156.5353 C.2     1  UNL1        0.0930
     33 C         142.9911  136.1399  157.1715 C.3     1  UNL1        0.0698
@<TRIPOS>BOND
     1     7     8    2
     2     8     9   am
     3     9     1    1
     4     1     2    1
     5     2     3    1
     6     3     4    1
     7     4    23    1
     8    23    24    1
     9    24    25    2
    10    25    26    1
    11    26    27    2
    12    27    28    1
    13    28    29    1
    14    29    30    2
    15    29    31    1
    16    31    32    2
    17    32    33    1
    18     4     5    1
    19     5     6    1
    20     8    11    1
    21    11    12   ar
    22    12    13   ar
    23    13    14    2
    24    13    15   ar
    25    15    16   ar
    26    16    17   ar
    27    17    18   ar
    28    18    19    1
    29    18    20   ar
    30    20    21   ar
    31    21    22   ar
    32     6     1    1
    33    22    11   ar
    34    33    24    1
    35    21    15   ar
    36    32    27    1
    37     9    10    1
@<TRIPOS>MOLECULE
*****
 33 37 0 0 0
SMALL
GASTEIGER

@<TRIPOS>ATOM
      1 C         141.3761  144.1431  158.7527 C.3     1  UNL1        0.0747
      2 C         142.2671  145.0158  157.9193 C.3     1  UNL1        0.0369
      3 C         141.7917  145.5197  156.5889 C.3     1  UNL1        0.0741
      4 N         140.4254  145.1509  156.0917 N.3     1  UNL1       -0.2691
      5 C         139.5344  144.2782  156.9251 C.3     1  UNL1        0.0741
      6 C         140.0098  143.7743  158.2556 C.3     1  UNL1        0.0369
      7 O         140.5519  145.5497  161.2711 O.2     1  UNL1       -0.2668
      8 C         141.4393  144.3425  161.3423 C.2     1  UNL1        0.2806
      9 N         141.8514  143.6392  160.0831 N.am    1  UNL1       -0.2999
     10 H         142.4339  142.8468  160.1299 H       1  UNL1        0.1498
     11 C         141.9147  143.8385  162.6728 C.ar    1  UNL1        0.2014
     12 C         143.3632  143.5052  162.8745 C.ar    1  UNL1        0.0843
     13 C         143.8386  143.0013  164.2049 C.ar    1  UNL1        0.2018
     14 O         145.2872  142.6679  164.4067 O.2     1  UNL1       -0.2864
     15 C         142.8655  142.8306  165.3337 C.ar    1  UNL1        0.0737
     16 C         143.3409  142.3267  166.6641 C.ar    1  UNL1        0.0085
     17 C         142.3678  142.1561  167.7927 C.ar    1  UNL1        0.0299
     18 C         140.9193  142.4894  167.5910 C.ar    1  UNL1        0.1432
     19 F         139.9461  142.3188  168.7197 F       1  UNL1       -0.2041
     20 C         140.4439  142.9934  166.2606 C.ar    1  UNL1        0.0672
     21 C         141.4170  143.1640  165.1319 C.ar    1  UNL1        0.1508
     22 O         140.9416  143.6679  163.8014 O.2     1  UNL1       -0.4486
     23 C         139.9500  145.6548  154.7613 C.3     1  UNL1        0.0952
     24 C         139.9093  147.1292  154.4887 C.2     1  UNL1       -0.0224
     25 C         140.7197  147.7072  153.3667 C.2     1  UNL1       -0.0036
     26 C         140.6789  149.1817  153.0941 C.2     1  UNL1        0.0381
     27 C         139.8277  150.0782  153.9436 C.2     1  UNL1        0.1616
     28 O         139.5883  151.5586  153.9137 O.3     1  UNL1       -0.4079
     29 C         138.6299  151.8957  155.0173 C.2     1  UNL1        0.4298
     30 O         138.1149  153.2646  155.3504 O.2     1  UNL1       -0.2238
     31 N         138.2770  150.6235  155.7293 N.am    1  UNL1       -0.1431
     32 C         139.0173  149.5002  155.0657 C.2     1  UNL1        0.0930
     33 C         139.0581  148.0257  155.3382 C.3     1  UNL1        0.0698
@<TRIPOS>BOND
     1     7     8    2
     2     8     9   am
     3     9     1    1
     4     1     2    1
     5     2     3    1
     6     3     4    1
     7     4    23    1
     8    23    24    1
     9    24    25    2
    10    25    26    1
    11    26    27    2
    12    27    28    1
    13    28    29    1
    14    29    30    2
    15    29    31    1
    16    31    32    2
    17    32    33    1
    18     4     5    1
    19     5     6    1
    20     8    11    1
    21    11    12   ar
    22    12    13   ar
    23    13    14    2
    24    13    15   ar
    25    15    16   ar
    26    16    17   ar
    27    17    18   ar
    28    18    19    1
    29    18    20   ar
    30    20    21   ar
    31    21    22   ar
    32     6     1    1
    33    22    11   ar
    34    33    24    1
    35    21    15   ar
    36    32    27    1
    37     9    10    1
@<TRIPOS>MOLECULE
*****
 33 37 0 0 0
SMALL
GASTEIGER

@<TRIPOS>ATOM
      1 C         142.8236  143.3100  161.2419 C.3     1  UNL1        0.0747
      2 C         142.5988  143.9126  162.5970 C.3     1  UNL1        0.0369
      3 C         142.8428  143.0956  163.8311 C.3     1  UNL1        0.0741
      4 N         143.3117  141.6759  163.7100 N.3     1  UNL1       -0.2691
      5 C         143.5365  141.0733  162.3549 C.3     1  UNL1        0.0741
      6 C         143.2925  141.8904  161.1209 C.3     1  UNL1        0.0369
      7 O         140.1683  143.1724  159.8526 O.2     1  UNL1       -0.2668
      8 C         141.2519  144.0582  159.3132 C.2     1  UNL1        0.2806
      9 N         142.5796  144.1270  160.0079 N.am    1  UNL1       -0.2999
     10 H         143.2908  144.7085  159.6539 H       1  UNL1        0.1498
     11 C         141.0080  144.8753  158.0791 C.ar    1  UNL1        0.2014
     12 C         141.6806  144.5062  156.7902 C.ar    1  UNL1        0.0843
     13 C         141.4366  145.3232  155.5561 C.ar    1  UNL1        0.2018
     14 O         142.1092  144.9541  154.2672 O.2     1  UNL1       -0.2864
     15 C         140.5200  146.5094  155.6110 C.ar    1  UNL1        0.0737
     16 C         140.2761  147.3264  154.3769 C.ar    1  UNL1        0.0085
     17 C         139.3595  148.5125  154.4318 C.ar    1  UNL1        0.0299
     18 C         138.6869  148.8816  155.7207 C.ar    1  UNL1        0.1432
     19 F         137.7703  150.0677  155.7756 F       1  UNL1       -0.2041
     20 C         138.9309  148.0646  156.9548 C.ar    1  UNL1        0.0672
     21 C         139.8474  146.8785  156.8999 C.ar    1  UNL1        0.1508
     22 O         140.0914  146.0614  158.1340 O.2     1  UNL1       -0.4486
     23 C         143.5557  140.8589  164.9441 C.3     1  UNL1        0.0952
     24 C         142.7167  141.0796  166.1677 C.2     1  UNL1       -0.0224
     25 C         143.0395  142.2050  167.1054 C.2     1  UNL1       -0.0036
     26 C         142.2005  142.4257  168.3291 C.2     1  UNL1        0.0381
     27 C         141.0388  141.5210  168.6151 C.2     1  UNL1        0.1616
     28 O         140.0399  141.4932  169.7338 O.3     1  UNL1       -0.4079
     29 C         139.0998  140.3506  169.4876 C.2     1  UNL1        0.4298
     30 O         137.9446  139.9557  170.3592 O.2     1  UNL1       -0.2238
     31 N         139.5176  139.6722  168.2167 N.am    1  UNL1       -0.1431
     32 C         140.7160  140.3957  167.6775 C.2     1  UNL1        0.0930
     33 C         141.5550  140.1749  166.4538 C.3     1  UNL1        0.0698
@<TRIPOS>BOND
     1     7     8    2
     2     8     9   am
     3     9     1    1
     4     1     2    1
     5     2     3    1
     6     3     4    1
     7     4    23    1
     8    23    24    1
     9    24    25    2
    10    25    26    1
    11    26    27    2
    12    27    28    1
    13    28    29    1
    14    29    30    2
    15    29    31    1
    16    31    32    2
    17    32    33    1
    18     4     5    1
    19     5     6    1
    20     8    11    1
    21    11    12   ar
    22    12    13   ar
    23    13    14    2
    24    13    15   ar
    25    15    16   ar
    26    16    17   ar
    27    17    18   ar
    28    18    19    1
    29    18    20   ar
    30    20    21   ar
    31    21    22   ar
    32     6     1    1
    33    22    11   ar
    34    33    24    1
    35    21    15   ar
    36    32    27    1
    37     9    10    1
