@<TRIPOS>MOLECULE
*****
 41 46 0 0 0
SMALL
GASTEIGER

@<TRIPOS>ATOM
      1 C         140.2380  140.1636  163.2850 C.3     1  UNL1        0.0414
      2 C         138.8313  140.0189  163.7855 C.3     1  UNL1        0.0741
      3 C         138.8402  139.8692  163.8318 C.3     1  UNL1        0.0893
      4 C         138.1248  140.2965  165.0792 C.3     1  UNL1        0.0386
      5 C         137.8075  139.2890  166.1443 C.3     1  UNL1        0.0594
      6 C         137.7044  137.9987  166.9022 C.3     1  UNL1        0.0174
      7 C         138.3473  136.9238  166.0769 C.3     1  UNL1        0.0174
      8 C         138.8477  137.5496  164.8089 C.3     1  UNL1        0.0594
      9 C         139.2383  138.4346  163.6497 C.3     1  UNL1        0.0386
     10 N         138.5141  139.0115  164.8505 N.3     1  UNL1       -0.2750
     11 C         139.5176  139.2097  160.7084 C.3     1  UNL1        0.0718
     12 C         139.4688  140.5735  161.3311 C.ar    1  UNL1        0.1207
     13 N         139.7228  141.8736  160.6274 N.ar    1  UNL1       -0.2309
     14 C         139.5684  142.9803  161.6282 C.ar    1  UNL1        0.0985
     15 C         139.7009  144.4694  161.5063 C.ar    1  UNL1        0.0229
     16 C         139.4839  145.3424  162.7066 C.ar    1  UNL1        0.0313
     17 C         139.1345  144.7262  164.0288 C.ar    1  UNL1        0.1417
     18 F         138.9175  145.5992  165.2292 F       1  UNL1       -0.2041
     19 C         139.0020  143.2370  164.1507 C.ar    1  UNL1        0.0484
     20 C         139.2190  142.3641  162.9504 C.ar    1  UNL1        0.0808
     21 N         139.1574  140.8766  162.7667 N.ar    1  UNL1       -0.3166
     22 C         141.3460  140.4845  164.2437 C.3     1  UNL1        0.0955
     23 C         142.7068  140.8434  163.7245 C.ar    1  UNL1       -0.0022
     24 C         143.9267  140.1913  164.3045 C.ar    1  UNL1       -0.0025
     25 C         145.2875  140.5501  163.7854 C.ar    1  UNL1        0.0020
     26 C         145.4282  141.5612  162.6863 C.ar    1  UNL1        0.0296
     27 C         144.2083  142.2133  162.1063 C.ar    1  UNL1        0.1399
     28 F         144.3491  143.2243  161.0072 F       1  UNL1       -0.2042
     29 C         142.8475  141.8544  162.6254 C.ar    1  UNL1        0.0270
     30 N         141.0932  140.4465  165.7219 N.am    1  UNL1       -0.3022
     31 C         141.3334  141.6702  166.5555 C.2     1  UNL1        0.2223
     32 O         141.8262  142.9318  165.9111 O.2     1  UNL1       -0.2751
     33 H         140.7697  139.6184  166.1448 H       1  UNL1        0.1497
     34 C         141.0806  141.6322  168.0336 C.3     1  UNL1        0.0800
     35 C         141.2749  140.3545  168.7951 C.3     1  UNL1        0.0344
     36 C         141.0221  140.3167  170.2732 C.3     1  UNL1        0.1513
     37 S         140.5752  141.5563  170.9898 S.O2    1  UNL1       -0.0100
     38 O         140.1436  142.4615  172.1053 O.2     1  UNL1       -0.1730
     39 O         140.6195  140.5931  172.1386 O.2     1  UNL1       -0.1730
     40 C         140.3809  142.8340  170.2281 C.3     1  UNL1        0.1513
     41 C         140.6337  142.8718  168.7501 C.3     1  UNL1        0.0344
@<TRIPOS>BOND
     1    11    12    1
     2    12    13   ar
     3    13    14   ar
     4    14    15   ar
     5    15    16   ar
     6    16    17   ar
     7    17    18    1
     8    17    19   ar
     9    19    20   ar
    10    20    21   ar
    11    21     3    1
    12     3     4    1
    13     5     4    1
    14     5     6    1
    15     6     7    1
    16     8     7    1
    17     8     9    1
    18     8    10    1
    19    10     2    1
    20     2     1    1
    21    22     1    1
    22    22    30    1
    23    30    31   am
    24    31    32    2
    25    31    34    1
    26    34    35    1
    27    35    36    1
    28    36    37    1
    29    37    38    2
    30    37    39    2
    31    37    40    1
    32    40    41    1
    33    22    23    1
    34    23    24   ar
    35    24    25   ar
    36    25    26   ar
    37    26    27   ar
    38    27    28    1
    39    27    29   ar
    40    21    12   ar
    41     9     3    1
    42    41    34    1
    43    29    23   ar
    44    20    14   ar
    45    10     5    1
    46    30    33    1
@<TRIPOS>MOLECULE
*****
 41 46 0 0 0
SMALL
GASTEIGER

@<TRIPOS>ATOM
      1 C         139.6724  140.9354  162.7741 C.3     1  UNL1        0.0414
      2 C         138.3954  140.4734  163.4112 C.3     1  UNL1        0.0741
      3 C         138.4402  140.3289  163.4531 C.3     1  UNL1        0.0893
      4 C         137.8208  140.6108  164.7899 C.3     1  UNL1        0.0386
      5 C         137.8545  139.5675  165.8671 C.3     1  UNL1        0.0594
      6 C         138.1137  138.2886  166.6069 C.3     1  UNL1        0.0174
      7 C         138.8485  137.3608  165.6853 C.3     1  UNL1        0.0174
      8 C         139.0435  138.0663  164.3760 C.3     1  UNL1        0.0594
      9 C         139.0934  139.0039  163.1937 C.3     1  UNL1        0.0386
     10 N         138.4291  139.4302  164.4883 N.3     1  UNL1       -0.2750
     11 C         137.9237  143.5214  163.8902 C.3     1  UNL1        0.0718
     12 C         138.1690  142.8396  162.5768 C.ar    1  UNL1        0.1207
     13 N         138.2200  143.5055  161.2337 N.ar    1  UNL1       -0.2309
     14 C         138.4889  142.4497  160.2027 C.ar    1  UNL1        0.0985
     15 C         138.6438  142.5186  158.7124 C.ar    1  UNL1        0.0229
     16 C         138.9139  141.2689  157.9279 C.ar    1  UNL1        0.0313
     17 C         139.0291  139.9504  158.6338 C.ar    1  UNL1        0.1417
     18 F         139.2992  138.7008  157.8493 F       1  UNL1       -0.2041
     19 C         138.8743  139.8816  160.1242 C.ar    1  UNL1        0.0484
     20 C         138.6042  141.1312  160.9086 C.ar    1  UNL1        0.0808
     21 N         138.4064  141.3722  162.3759 N.ar    1  UNL1       -0.3166
     22 C         140.8092  141.4091  163.6304 C.3     1  UNL1        0.0955
     23 C         142.1683  141.6107  163.0285 C.ar    1  UNL1       -0.0022
     24 C         142.8991  140.4501  162.4211 C.ar    1  UNL1       -0.0025
     25 C         144.2582  140.6516  161.8192 C.ar    1  UNL1        0.0020
     26 C         144.8864  142.0138  161.8248 C.ar    1  UNL1        0.0296
     27 C         144.1556  143.1744  162.4322 C.ar    1  UNL1        0.1399
     28 F         144.7838  144.5364  162.4377 F       1  UNL1       -0.2042
     29 C         142.7965  142.9728  163.0341 C.ar    1  UNL1        0.0270
     30 N         140.5869  141.6813  165.0888 N.am    1  UNL1       -0.3022
     31 C         141.1643  140.7582  166.1205 C.2     1  UNL1        0.2223
     32 O         141.9640  139.5630  165.6940 O.2     1  UNL1       -0.2751
     33 H         140.0620  142.4658  165.3687 H       1  UNL1        0.1497
     34 C         140.9421  141.0304  167.5788 C.3     1  UNL1        0.0800
     35 C         140.5727  142.4103  168.0364 C.3     1  UNL1        0.0344
     36 C         140.3504  142.6824  169.4948 C.3     1  UNL1        0.1513
     37 S         140.4976  141.5746  170.4954 S.O2    1  UNL1       -0.0100
     38 O         140.5190  140.8599  171.8139 O.2     1  UNL1       -0.1730
     39 O         140.1356  142.7063  171.4109 O.2     1  UNL1       -0.1730
     40 C         140.8670  140.1947  170.0376 C.3     1  UNL1        0.1513
     41 C         141.0892  139.9227  168.5794 C.3     1  UNL1        0.0344
@<TRIPOS>BOND
     1    11    12    1
     2    12    13   ar
     3    13    14   ar
     4    14    15   ar
     5    15    16   ar
     6    16    17   ar
     7    17    18    1
     8    17    19   ar
     9    19    20   ar
    10    20    21   ar
    11    21     3    1
    12     3     4    1
    13     5     4    1
    14     5     6    1
    15     6     7    1
    16     8     7    1
    17     8     9    1
    18     8    10    1
    19    10     2    1
    20     2     1    1
    21    22     1    1
    22    22    30    1
    23    30    31   am
    24    31    32    2
    25    31    34    1
    26    34    35    1
    27    35    36    1
    28    36    37    1
    29    37    38    2
    30    37    39    2
    31    37    40    1
    32    40    41    1
    33    22    23    1
    34    23    24   ar
    35    24    25   ar
    36    25    26   ar
    37    26    27   ar
    38    27    28    1
    39    27    29   ar
    40    21    12   ar
    41     9     3    1
    42    41    34    1
    43    29    23   ar
    44    20    14   ar
    45    10     5    1
    46    30    33    1
@<TRIPOS>MOLECULE
*****
 41 46 0 0 0
SMALL
GASTEIGER

@<TRIPOS>ATOM
      1 C         139.6774  140.9188  162.8172 C.3     1  UNL1        0.0414
      2 C         138.3926  140.4359  163.4224 C.3     1  UNL1        0.0741
      3 C         138.4341  140.2889  163.4586 C.3     1  UNL1        0.0893
      4 C         137.8415  140.5400  164.8136 C.3     1  UNL1        0.0386
      5 C         137.8618  139.4588  165.8531 C.3     1  UNL1        0.0594
      6 C         138.0961  138.1480  166.5437 C.3     1  UNL1        0.0174
      7 C         138.7921  137.2339  165.5793 C.3     1  UNL1        0.0174
      8 C         138.9878  137.9796  164.2926 C.3     1  UNL1        0.0594
      9 C         139.0468  138.9567  163.1432 C.3     1  UNL1        0.0386
     10 N         138.4129  139.3548  164.4618 N.3     1  UNL1       -0.2750
     11 C         137.8583  143.4558  163.9959 C.3     1  UNL1        0.0718
     12 C         138.1491  142.8258  162.6661 C.ar    1  UNL1        0.1207
     13 N         138.2264  143.5408  161.3497 N.ar    1  UNL1       -0.2309
     14 C         138.5388  142.5271  160.2892 C.ar    1  UNL1        0.0985
     15 C         138.7327  142.6523  158.8071 C.ar    1  UNL1        0.0229
     16 C         139.0425  141.4359  157.9859 C.ar    1  UNL1        0.0313
     17 C         139.1583  140.0943  158.6468 C.ar    1  UNL1        0.1417
     18 F         139.4681  138.8779  157.8255 F       1  UNL1       -0.2041
     19 C         138.9643  139.9691  160.1289 C.ar    1  UNL1        0.0484
     20 C         138.6546  141.1855  160.9501 C.ar    1  UNL1        0.0808
     21 N         138.4138  141.3702  162.4191 N.ar    1  UNL1       -0.3166
     22 C         140.8263  141.3012  163.7024 C.3     1  UNL1        0.0955
     23 C         142.0553  141.9239  163.1092 C.ar    1  UNL1       -0.0022
     24 C         141.9379  142.8269  161.9172 C.ar    1  UNL1       -0.0025
     25 C         143.1668  143.4496  161.3240 C.ar    1  UNL1        0.0020
     26 C         144.5132  143.1693  161.9229 C.ar    1  UNL1        0.0296
     27 C         144.6307  142.2664  163.1149 C.ar    1  UNL1        0.1399
     28 F         145.9772  141.9862  163.7137 F       1  UNL1       -0.2042
     29 C         143.4018  141.6437  163.7081 C.ar    1  UNL1        0.0270
     30 N         140.7463  141.0610  165.1810 N.am    1  UNL1       -0.3022
     31 C         140.6533  142.2225  166.1256 C.2     1  UNL1        0.2223
     32 O         140.6404  143.6242  165.5917 O.2     1  UNL1       -0.2751
     33 H         140.7547  140.1410  165.5314 H       1  UNL1        0.1497
     34 C         140.5733  141.9823  167.6040 C.3     1  UNL1        0.0800
     35 C         140.5674  143.1437  168.5533 C.3     1  UNL1        0.0344
     36 C         140.4873  142.9034  170.0319 C.3     1  UNL1        0.1513
     37 S         140.4132  141.5018  170.5610 S.O2    1  UNL1       -0.0100
     38 O         140.3266  140.3666  171.5377 O.2     1  UNL1       -0.1730
     39 O         140.3772  142.2689  171.8494 O.2     1  UNL1       -0.1730
     40 C         140.4191  140.3404  169.6116 C.3     1  UNL1        0.1513
     41 C         140.4991  140.5807  168.1332 C.3     1  UNL1        0.0344
@<TRIPOS>BOND
     1    11    12    1
     2    12    13   ar
     3    13    14   ar
     4    14    15   ar
     5    15    16   ar
     6    16    17   ar
     7    17    18    1
     8    17    19   ar
     9    19    20   ar
    10    20    21   ar
    11    21     3    1
    12     3     4    1
    13     5     4    1
    14     5     6    1
    15     6     7    1
    16     8     7    1
    17     8     9    1
    18     8    10    1
    19    10     2    1
    20     2     1    1
    21    22     1    1
    22    22    30    1
    23    30    31   am
    24    31    32    2
    25    31    34    1
    26    34    35    1
    27    35    36    1
    28    36    37    1
    29    37    38    2
    30    37    39    2
    31    37    40    1
    32    40    41    1
    33    22    23    1
    34    23    24   ar
    35    24    25   ar
    36    25    26   ar
    37    26    27   ar
    38    27    28    1
    39    27    29   ar
    40    21    12   ar
    41     9     3    1
    42    41    34    1
    43    29    23   ar
    44    20    14   ar
    45    10     5    1
    46    30    33    1
@<TRIPOS>MOLECULE
*****
 41 46 0 0 0
SMALL
GASTEIGER

@<TRIPOS>ATOM
      1 C         142.1567  140.0542  166.0900 C.3     1  UNL1        0.0414
      2 C         142.6978  140.8620  167.2323 C.3     1  UNL1        0.0741
      3 C         142.6351  140.7956  167.3600 C.3     1  UNL1        0.0893
      4 C         142.0815  142.1493  167.6940 C.3     1  UNL1        0.0386
      5 C         141.2598  142.3383  168.9345 C.3     1  UNL1        0.0594
      6 C         140.5292  142.0688  170.2166 C.3     1  UNL1        0.0174
      7 C         140.6940  140.6150  170.5472 C.3     1  UNL1        0.0174
      8 C         141.5264  139.9860  169.4696 C.3     1  UNL1        0.0594
      9 C         142.3669  139.6313  168.2667 C.3     1  UNL1        0.0386
     10 N         141.8761  141.0510  168.4728 N.3     1  UNL1       -0.2750
     11 C         143.9879  137.9982  166.3630 C.3     1  UNL1        0.0718
     12 C         144.0786  139.3208  165.6612 C.ar    1  UNL1        0.1207
     13 N         144.8071  139.5898  164.3779 N.ar    1  UNL1       -0.2309
     14 C         144.6356  141.0419  164.0430 C.ar    1  UNL1        0.0985
     15 C         145.1315  141.8730  162.8970 C.ar    1  UNL1        0.0229
     16 C         144.7928  143.3326  162.8274 C.ar    1  UNL1        0.0313
     17 C         143.9583  143.9610  163.9038 C.ar    1  UNL1        0.1417
     18 F         143.6196  145.4207  163.8342 F       1  UNL1       -0.2041
     19 C         143.4624  143.1299  165.0498 C.ar    1  UNL1        0.0484
     20 C         143.8011  141.6703  165.1194 C.ar    1  UNL1        0.0808
     21 N         143.4569  140.6066  166.1195 N.ar    1  UNL1       -0.3166
     22 C         140.7535  140.2797  165.6104 C.3     1  UNL1        0.0955
     23 C         139.6839  139.2750  165.9215 C.ar    1  UNL1       -0.0022
     24 C         139.4989  138.0782  165.0364 C.ar    1  UNL1       -0.0025
     25 C         138.4293  137.0736  165.3474 C.ar    1  UNL1        0.0020
     26 C         137.5449  137.2657  166.5437 C.ar    1  UNL1        0.0296
     27 C         137.7300  138.4625  167.4288 C.ar    1  UNL1        0.1399
     28 F         136.8455  138.6546  168.6250 F       1  UNL1       -0.2042
     29 C         138.7995  139.4672  167.1178 C.ar    1  UNL1        0.0270
     30 N         140.4197  141.5099  164.8196 N.am    1  UNL1       -0.3022
     31 C         140.7710  141.5834  163.3631 C.2     1  UNL1        0.2223
     32 O         141.4559  140.4268  162.6975 O.2     1  UNL1       -0.2751
     33 H         139.9702  142.2690  165.2565 H       1  UNL1        0.1497
     34 C         140.4372  142.8135  162.5723 C.3     1  UNL1        0.0800
     35 C         140.7269  142.8610  161.1013 C.3     1  UNL1        0.0344
     36 C         140.3931  144.0913  160.3106 C.3     1  UNL1        0.1513
     37 S         139.7697  145.2739  160.9908 S.O2    1  UNL1       -0.0100
     38 O         139.1751  146.6375  161.1834 O.2     1  UNL1       -0.1730
     39 O         139.8529  145.7950  159.5867 O.2     1  UNL1       -0.1730
     40 C         139.4800  145.2263  162.4618 C.3     1  UNL1        0.1513
     41 C         139.8138  143.9962  163.2525 C.3     1  UNL1        0.0344
@<TRIPOS>BOND
     1    11    12    1
     2    12    13   ar
     3    13    14   ar
     4    14    15   ar
     5    15    16   ar
     6    16    17   ar
     7    17    18    1
     8    17    19   ar
     9    19    20   ar
    10    20    21   ar
    11    21     3    1
    12     3     4    1
    13     5     4    1
    14     5     6    1
    15     6     7    1
    16     8     7    1
    17     8     9    1
    18     8    10    1
    19    10     2    1
    20     2     1    1
    21    22     1    1
    22    22    30    1
    23    30    31   am
    24    31    32    2
    25    31    34    1
    26    34    35    1
    27    35    36    1
    28    36    37    1
    29    37    38    2
    30    37    39    2
    31    37    40    1
    32    40    41    1
    33    22    23    1
    34    23    24   ar
    35    24    25   ar
    36    25    26   ar
    37    26    27   ar
    38    27    28    1
    39    27    29   ar
    40    21    12   ar
    41     9     3    1
    42    41    34    1
    43    29    23   ar
    44    20    14   ar
    45    10     5    1
    46    30    33    1
@<TRIPOS>MOLECULE
*****
 41 46 0 0 0
SMALL
GASTEIGER

@<TRIPOS>ATOM
      1 C         139.8004  141.8792  163.1510 C.3     1  UNL1        0.0414
      2 C         138.9952  140.6273  162.9648 C.3     1  UNL1        0.0741
      3 C         138.9322  140.5909  163.1039 C.3     1  UNL1        0.0893
      4 C         139.7086  139.3095  163.0308 C.3     1  UNL1        0.0386
      5 C         139.6103  138.3085  164.1436 C.3     1  UNL1        0.0594
      6 C         139.2223  137.6350  165.4265 C.3     1  UNL1        0.0174
      7 C         138.2691  138.5367  166.1534 C.3     1  UNL1        0.0174
      8 C         138.0680  139.7674  165.3198 C.3     1  UNL1        0.0594
      9 C         138.0576  140.8712  164.2898 C.3     1  UNL1        0.0386
     10 N         138.8970  139.6264  164.0775 N.3     1  UNL1       -0.2750
     11 C         137.6437  143.5891  163.1016 C.3     1  UNL1        0.0718
     12 C         138.4382  142.9701  161.9901 C.ar    1  UNL1        0.1207
     13 N         138.7800  143.6204  160.6823 N.ar    1  UNL1       -0.2309
     14 C         139.5836  142.6442  159.8752 C.ar    1  UNL1        0.0985
     15 C         140.1943  142.7350  158.5081 C.ar    1  UNL1        0.0229
     16 C         140.9598  141.5720  157.9501 C.ar    1  UNL1        0.0313
     17 C         141.1146  140.3183  158.7590 C.ar    1  UNL1        0.1417
     18 F         141.8801  139.1554  158.2008 F       1  UNL1       -0.2041
     19 C         140.5039  140.2276  160.1260 C.ar    1  UNL1        0.0484
     20 C         139.7384  141.3906  160.6841 C.ar    1  UNL1        0.0808
     21 N         139.0305  141.5920  161.9911 N.ar    1  UNL1       -0.3166
     22 C         141.0894  141.8350  163.9168 C.3     1  UNL1        0.0955
     23 C         142.3888  142.0949  163.2138 C.ar    1  UNL1       -0.0022
     24 C         142.4087  142.8992  161.9478 C.ar    1  UNL1       -0.0025
     25 C         143.7080  143.1591  161.2448 C.ar    1  UNL1        0.0020
     26 C         144.9873  142.6147  161.8078 C.ar    1  UNL1        0.0296
     27 C         144.9674  141.8105  163.0738 C.ar    1  UNL1        0.1399
     28 F         146.2468  141.2661  163.6368 F       1  UNL1       -0.2042
     29 C         143.6681  141.5505  163.7768 C.ar    1  UNL1        0.0270
     30 N         141.0791  141.5308  165.3857 N.am    1  UNL1       -0.3022
     31 C         140.4617  142.5015  166.3483 C.2     1  UNL1        0.2223
     32 O         139.8546  143.7763  165.8421 O.2     1  UNL1       -0.2751
     33 H         141.4776  140.6941  165.7179 H       1  UNL1        0.1497
     34 C         140.4514  142.1973  167.8171 C.3     1  UNL1        0.0800
     35 C         140.4543  140.7732  168.2881 C.3     1  UNL1        0.0344
     36 C         140.4440  140.4692  169.7570 C.3     1  UNL1        0.1513
     37 S         140.4309  141.5892  170.7548 S.O2    1  UNL1       -0.0100
     38 O         140.4171  142.3003  172.0754 O.2     1  UNL1       -0.1730
     39 O         140.4289  140.4121  171.6844 O.2     1  UNL1       -0.1730
     40 C         140.4281  143.0133  170.2836 C.3     1  UNL1        0.1513
     41 C         140.4384  143.3173  168.8148 C.3     1  UNL1        0.0344
@<TRIPOS>BOND
     1    11    12    1
     2    12    13   ar
     3    13    14   ar
     4    14    15   ar
     5    15    16   ar
     6    16    17   ar
     7    17    18    1
     8    17    19   ar
     9    19    20   ar
    10    20    21   ar
    11    21     3    1
    12     3     4    1
    13     5     4    1
    14     5     6    1
    15     6     7    1
    16     8     7    1
    17     8     9    1
    18     8    10    1
    19    10     2    1
    20     2     1    1
    21    22     1    1
    22    22    30    1
    23    30    31   am
    24    31    32    2
    25    31    34    1
    26    34    35    1
    27    35    36    1
    28    36    37    1
    29    37    38    2
    30    37    39    2
    31    37    40    1
    32    40    41    1
    33    22    23    1
    34    23    24   ar
    35    24    25   ar
    36    25    26   ar
    37    26    27   ar
    38    27    28    1
    39    27    29   ar
    40    21    12   ar
    41     9     3    1
    42    41    34    1
    43    29    23   ar
    44    20    14   ar
    45    10     5    1
    46    30    33    1
@<TRIPOS>MOLECULE
*****
 41 46 0 0 0
SMALL
GASTEIGER

@<TRIPOS>ATOM
      1 C         141.7444  141.3177  166.1214 C.3     1  UNL1        0.0414
      2 C         143.2217  141.3826  165.8695 C.3     1  UNL1        0.0741
      3 C         143.2390  141.5184  165.7927 C.3     1  UNL1        0.0893
      4 C         143.9339  140.7324  164.7206 C.3     1  UNL1        0.0386
      5 C         144.4566  141.4290  163.4993 C.3     1  UNL1        0.0594
      6 C         144.7991  142.4962  162.5024 C.3     1  UNL1        0.0174
      7 C         144.2985  143.8060  163.0352 C.3     1  UNL1        0.0174
      8 C         143.6467  143.5483  164.3614 C.3     1  UNL1        0.0594
      9 C         143.0669  143.0009  165.6434 C.3     1  UNL1        0.0386
     10 N         143.7444  142.0791  164.6482 N.3     1  UNL1       -0.2750
     11 C         143.5775  138.3473  166.4847 C.3     1  UNL1        0.0718
     12 C         142.8719  139.3642  167.3321 C.ar    1  UNL1        0.1207
     13 N         142.1980  139.1021  168.6463 N.ar    1  UNL1       -0.2309
     14 C         141.6259  140.3977  169.1404 C.ar    1  UNL1        0.0985
     15 C         140.8548  140.7470  170.3786 C.ar    1  UNL1        0.0229
     16 C         140.4039  142.1591  170.6080 C.ar    1  UNL1        0.0313
     17 C         140.7243  143.2219  169.5992 C.ar    1  UNL1        0.1417
     18 F         140.2734  144.6341  169.8287 F       1  UNL1       -0.2041
     19 C         141.4955  142.8727  168.3610 C.ar    1  UNL1        0.0484
     20 C         141.9463  141.4606  168.1316 C.ar    1  UNL1        0.0808
     21 N         142.7163  140.8218  167.0140 N.ar    1  UNL1       -0.3166
     22 C         140.8280  140.7643  165.0708 C.3     1  UNL1        0.0955
     23 C         139.9091  139.6257  165.4013 C.ar    1  UNL1       -0.0022
     24 C         139.9234  138.3825  164.5621 C.ar    1  UNL1       -0.0025
     25 C         139.0046  137.2439  164.8925 C.ar    1  UNL1        0.0020
     26 C         138.0713  137.3485  166.0622 C.ar    1  UNL1        0.0296
     27 C         138.0570  138.5916  166.9015 C.ar    1  UNL1        0.1399
     28 F         137.1237  138.6961  168.0712 F       1  UNL1       -0.2042
     29 C         138.9758  139.7303  166.5711 C.ar    1  UNL1        0.0270
     30 N         140.8304  141.3495  163.6896 N.am    1  UNL1       -0.3022
     31 C         140.2433  142.7089  163.4500 C.2     1  UNL1        0.2223
     32 O         139.6538  143.4831  164.5915 O.2     1  UNL1       -0.2751
     33 H         141.2173  140.8413  162.9404 H       1  UNL1        0.1497
     34 C         140.2457  143.2940  162.0688 C.3     1  UNL1        0.0800
     35 C         140.2725  144.7825  161.8849 C.3     1  UNL1        0.0344
     36 C         140.2749  145.3675  160.5037 C.3     1  UNL1        0.1513
     37 S         140.2506  144.4642  159.3064 S.O2    1  UNL1       -0.0100
     38 O         140.2334  144.0249  157.8723 O.2     1  UNL1       -0.1730
     39 O         140.2714  145.8001  158.6245 O.2     1  UNL1       -0.1730
     40 C         140.2238  142.9758  159.4904 C.3     1  UNL1        0.1513
     41 C         140.2214  142.3907  160.8716 C.3     1  UNL1        0.0344
@<TRIPOS>BOND
     1    11    12    1
     2    12    13   ar
     3    13    14   ar
     4    14    15   ar
     5    15    16   ar
     6    16    17   ar
     7    17    18    1
     8    17    19   ar
     9    19    20   ar
    10    20    21   ar
    11    21     3    1
    12     3     4    1
    13     5     4    1
    14     5     6    1
    15     6     7    1
    16     8     7    1
    17     8     9    1
    18     8    10    1
    19    10     2    1
    20     2     1    1
    21    22     1    1
    22    22    30    1
    23    30    31   am
    24    31    32    2
    25    31    34    1
    26    34    35    1
    27    35    36    1
    28    36    37    1
    29    37    38    2
    30    37    39    2
    31    37    40    1
    32    40    41    1
    33    22    23    1
    34    23    24   ar
    35    24    25   ar
    36    25    26   ar
    37    26    27   ar
    38    27    28    1
    39    27    29   ar
    40    21    12   ar
    41     9     3    1
    42    41    34    1
    43    29    23   ar
    44    20    14   ar
    45    10     5    1
    46    30    33    1
@<TRIPOS>MOLECULE
*****
 41 46 0 0 0
SMALL
GASTEIGER

@<TRIPOS>ATOM
      1 C         142.0859  142.7851  163.2399 C.3     1  UNL1        0.0414
      2 C         140.9918  143.6513  162.6895 C.3     1  UNL1        0.0741
      3 C         140.9311  143.7225  162.8155 C.3     1  UNL1        0.0893
      4 C         139.6089  143.1435  162.4071 C.3     1  UNL1        0.0386
      5 C         138.3842  143.4177  163.2286 C.3     1  UNL1        0.0594
      6 C         137.4727  143.9338  164.3023 C.3     1  UNL1        0.0174
      7 C         138.2923  144.7605  165.2482 C.3     1  UNL1        0.0174
      8 C         139.7103  144.7553  164.7592 C.3     1  UNL1        0.0594
      9 C         141.0285  144.5754  164.0455 C.3     1  UNL1        0.0386
     10 N         139.7672  143.9254  163.5110 N.3     1  UNL1       -0.2750
     11 C         143.8932  145.0030  163.3016 C.3     1  UNL1        0.0718
     12 C         143.5173  144.0369  162.2174 C.ar    1  UNL1        0.1207
     13 N         144.4369  143.4899  161.1662 N.ar    1  UNL1       -0.2309
     14 C         143.6438  142.5632  160.2931 C.ar    1  UNL1        0.0985
     15 C         144.0232  141.7394  159.0984 C.ar    1  UNL1        0.0229
     16 C         142.9928  140.8900  158.4153 C.ar    1  UNL1        0.0313
     17 C         141.5830  140.8644  158.9269 C.ar    1  UNL1        0.1417
     18 F         140.5526  140.0149  158.2436 F       1  UNL1       -0.2041
     19 C         141.2036  141.6881  160.1216 C.ar    1  UNL1        0.0484
     20 C         142.2340  142.5375  160.8047 C.ar    1  UNL1        0.0808
     21 N         142.1558  143.4484  161.9939 N.ar    1  UNL1       -0.3166
     22 C         141.7446  141.5326  163.9912 C.3     1  UNL1        0.0955
     23 C         141.7806  140.2056  163.2927 C.ar    1  UNL1       -0.0022
     24 C         143.0953  139.6033  162.8942 C.ar    1  UNL1       -0.0025
     25 C         143.1314  138.2764  162.1957 C.ar    1  UNL1        0.0020
     26 C         141.8527  137.5517  161.8958 C.ar    1  UNL1        0.0296
     27 C         140.5380  138.1540  162.2943 C.ar    1  UNL1        0.1399
     28 F         139.2594  137.4293  161.9944 F       1  UNL1       -0.2042
     29 C         140.5019  139.4809  162.9928 C.ar    1  UNL1        0.0270
     30 N         141.3672  141.6069  165.4412 N.am    1  UNL1       -0.3022
     31 C         142.3529  142.1232  166.4471 C.2     1  UNL1        0.2223
     32 O         143.7158  142.5652  166.0033 O.2     1  UNL1       -0.2751
     33 H         140.4727  141.3168  165.7325 H       1  UNL1        0.1497
     34 C         141.9755  142.1976  167.8970 C.3     1  UNL1        0.0800
     35 C         143.0380  142.1228  168.9533 C.3     1  UNL1        0.0344
     36 C         142.6605  142.1971  170.4032 C.3     1  UNL1        0.1513
     37 S         141.2208  142.3463  170.7967 S.O2    1  UNL1       -0.0100
     38 O         140.0031  142.4863  171.6614 O.2     1  UNL1       -0.1730
     39 O         141.8603  142.3201  172.1532 O.2     1  UNL1       -0.1730
     40 C         140.1584  142.4210  169.7404 C.3     1  UNL1        0.1513
     41 C         140.5358  142.3467  168.2906 C.3     1  UNL1        0.0344
@<TRIPOS>BOND
     1    11    12    1
     2    12    13   ar
     3    13    14   ar
     4    14    15   ar
     5    15    16   ar
     6    16    17   ar
     7    17    18    1
     8    17    19   ar
     9    19    20   ar
    10    20    21   ar
    11    21     3    1
    12     3     4    1
    13     5     4    1
    14     5     6    1
    15     6     7    1
    16     8     7    1
    17     8     9    1
    18     8    10    1
    19    10     2    1
    20     2     1    1
    21    22     1    1
    22    22    30    1
    23    30    31   am
    24    31    32    2
    25    31    34    1
    26    34    35    1
    27    35    36    1
    28    36    37    1
    29    37    38    2
    30    37    39    2
    31    37    40    1
    32    40    41    1
    33    22    23    1
    34    23    24   ar
    35    24    25   ar
    36    25    26   ar
    37    26    27   ar
    38    27    28    1
    39    27    29   ar
    40    21    12   ar
    41     9     3    1
    42    41    34    1
    43    29    23   ar
    44    20    14   ar
    45    10     5    1
    46    30    33    1
@<TRIPOS>MOLECULE
*****
 41 46 0 0 0
SMALL
GASTEIGER

@<TRIPOS>ATOM
      1 C         140.2905  140.7226  163.2169 C.3     1  UNL1        0.0414
      2 C         139.0413  141.4142  162.7571 C.3     1  UNL1        0.0741
      3 C         139.0929  141.5353  162.6715 C.3     1  UNL1        0.0893
      4 C         138.3063  142.4192  163.5936 C.3     1  UNL1        0.0386
      5 C         138.3041  143.9050  163.3875 C.3     1  UNL1        0.0594
      6 C         138.5822  145.2678  162.8258 C.3     1  UNL1        0.0174
      7 C         139.4891  145.1050  161.6421 C.3     1  UNL1        0.0174
      8 C         139.7715  143.6416  161.4723 C.3     1  UNL1        0.0594
      9 C         139.8771  142.1373  161.5434 C.3     1  UNL1        0.0386
     10 N         139.0391  142.8999  162.5510 N.3     1  UNL1       -0.2750
     11 C         139.8286  139.2880  160.4225 C.3     1  UNL1        0.0718
     12 C         139.4333  139.0166  161.8438 C.ar    1  UNL1        0.1207
     13 N         139.3067  137.6645  162.4810 N.ar    1  UNL1       -0.2309
     14 C         138.8903  137.8619  163.9085 C.ar    1  UNL1        0.0985
     15 C         138.6134  136.8898  165.0167 C.ar    1  UNL1        0.0229
     16 C         138.2057  137.3918  166.3701 C.ar    1  UNL1        0.0313
     17 C         138.0749  138.8659  166.6152 C.ar    1  UNL1        0.1417
     18 F         137.6671  139.3678  167.9687 F       1  UNL1       -0.2041
     19 C         138.3518  139.8379  165.5069 C.ar    1  UNL1        0.0484
     20 C         138.7596  139.3359  164.1536 C.ar    1  UNL1        0.0808
     21 N         139.0951  140.0495  162.8776 N.ar    1  UNL1       -0.3166
     22 C         141.3137  141.4748  164.0151 C.3     1  UNL1        0.0955
     23 C         142.5340  142.0271  163.3398 C.ar    1  UNL1       -0.0022
     24 C         143.4208  141.1225  162.5365 C.ar    1  UNL1       -0.0025
     25 C         144.6411  141.6747  161.8612 C.ar    1  UNL1        0.0020
     26 C         144.9745  143.1316  161.9893 C.ar    1  UNL1        0.0296
     27 C         144.0877  144.0362  162.7926 C.ar    1  UNL1        0.1399
     28 F         144.4212  145.4931  162.9207 F       1  UNL1       -0.2042
     29 C         142.8675  143.4840  163.4679 C.ar    1  UNL1        0.0270
     30 N         141.1168  141.6746  165.4887 N.am    1  UNL1       -0.3022
     31 C         141.9629  140.9165  166.4681 C.2     1  UNL1        0.2223
     32 O         143.0060  139.9584  165.9740 O.2     1  UNL1       -0.2751
     33 H         140.4322  142.3034  165.8130 H       1  UNL1        0.1497
     34 C         141.7660  141.1163  167.9416 C.3     1  UNL1        0.0800
     35 C         140.8267  140.2263  168.7003 C.3     1  UNL1        0.0344
     36 C         140.6298  140.4263  170.1738 C.3     1  UNL1        0.1513
     37 S         141.3722  141.5161  170.8887 S.O2    1  UNL1       -0.0100
     38 O         141.8455  142.4040  172.0012 O.2     1  UNL1       -0.1730
     39 O         140.5973  140.9345  172.0337 O.2     1  UNL1       -0.1730
     40 C         142.3116  142.4061  170.1299 C.3     1  UNL1        0.1513
     41 C         142.5084  142.2062  168.6564 C.3     1  UNL1        0.0344
@<TRIPOS>BOND
     1    11    12    1
     2    12    13   ar
     3    13    14   ar
     4    14    15   ar
     5    15    16   ar
     6    16    17   ar
     7    17    18    1
     8    17    19   ar
     9    19    20   ar
    10    20    21   ar
    11    21     3    1
    12     3     4    1
    13     5     4    1
    14     5     6    1
    15     6     7    1
    16     8     7    1
    17     8     9    1
    18     8    10    1
    19    10     2    1
    20     2     1    1
    21    22     1    1
    22    22    30    1
    23    30    31   am
    24    31    32    2
    25    31    34    1
    26    34    35    1
    27    35    36    1
    28    36    37    1
    29    37    38    2
    30    37    39    2
    31    37    40    1
    32    40    41    1
    33    22    23    1
    34    23    24   ar
    35    24    25   ar
    36    25    26   ar
    37    26    27   ar
    38    27    28    1
    39    27    29   ar
    40    21    12   ar
    41     9     3    1
    42    41    34    1
    43    29    23   ar
    44    20    14   ar
    45    10     5    1
    46    30    33    1
@<TRIPOS>MOLECULE
*****
 41 46 0 0 0
SMALL
GASTEIGER

@<TRIPOS>ATOM
      1 C         139.5981  141.0613  162.6804 C.3     1  UNL1        0.0414
      2 C         138.4193  140.1700  162.9380 C.3     1  UNL1        0.0741
      3 C         138.3939  140.1621  163.0927 C.3     1  UNL1        0.0893
      4 C         138.7166  138.7007  162.9904 C.3     1  UNL1        0.0386
      5 C         138.6826  137.8376  164.2168 C.3     1  UNL1        0.0594
      6 C         138.5292  137.3841  165.6383 C.3     1  UNL1        0.0174
      7 C         138.1371  138.5732  166.4644 C.3     1  UNL1        0.0174
      8 C         138.0482  139.7615  165.5534 C.3     1  UNL1        0.0594
      9 C         138.0374  140.7602  164.4212 C.3     1  UNL1        0.0386
     10 N         138.3854  139.3069  164.1642 N.3     1  UNL1       -0.2750
     11 C         137.7225  143.3534  162.9740 C.3     1  UNL1        0.0718
     12 C         138.1192  142.4921  161.8118 C.ar    1  UNL1        0.1207
     13 N         138.2770  142.9464  160.3910 N.ar    1  UNL1       -0.2309
     14 C         138.6832  141.7603  159.5674 C.ar    1  UNL1        0.0985
     15 C         138.9801  141.6081  158.1051 C.ar    1  UNL1        0.0229
     16 C         139.3703  140.2685  157.5545 C.ar    1  UNL1        0.0313
     17 C         139.4636  139.0811  158.4664 C.ar    1  UNL1        0.1417
     18 F         139.8538  137.7414  157.9157 F       1  UNL1       -0.2041
     19 C         139.1666  139.2333  159.9287 C.ar    1  UNL1        0.0484
     20 C         138.7764  140.5729  160.4793 C.ar    1  UNL1        0.0808
     21 N         138.4279  141.0252  161.8663 N.ar    1  UNL1       -0.3166
     22 C         140.9535  140.6804  163.1977 C.3     1  UNL1        0.0955
     23 C         141.9865  140.1292  162.2600 C.ar    1  UNL1       -0.0022
     24 C         142.5186  138.7415  162.4624 C.ar    1  UNL1       -0.0025
     25 C         143.5516  138.1902  161.5248 C.ar    1  UNL1        0.0020
     26 C         144.0524  139.0268  160.3848 C.ar    1  UNL1        0.0296
     27 C         143.5202  140.4145  160.1825 C.ar    1  UNL1        0.1399
     28 F         144.0210  141.2510  159.0425 F       1  UNL1       -0.2042
     29 C         142.4873  140.9658  161.1201 C.ar    1  UNL1        0.0270
     30 N         141.2760  140.8507  164.6527 N.am    1  UNL1       -0.3022
     31 C         141.2723  142.2194  165.2666 C.2     1  UNL1        0.2223
     32 O         140.9460  143.4177  164.4254 O.2     1  UNL1       -0.2751
     33 H         141.4902  140.0642  165.2048 H       1  UNL1        0.1497
     34 C         141.5948  142.3897  166.7215 C.3     1  UNL1        0.0800
     35 C         143.0075  142.2306  167.2002 C.3     1  UNL1        0.0344
     36 C         143.3299  142.4010  168.6553 C.3     1  UNL1        0.1513
     37 S         142.2398  142.7303  169.6316 S.O2    1  UNL1       -0.0100
     38 O         141.5581  143.0421  170.9308 O.2     1  UNL1       -0.1730
     39 O         143.4157  142.6795  170.5614 O.2     1  UNL1       -0.1730
     40 C         140.8272  142.8894  169.1528 C.3     1  UNL1        0.1513
     41 C         140.5047  142.7191  167.6978 C.3     1  UNL1        0.0344
@<TRIPOS>BOND
     1    11    12    1
     2    12    13   ar
     3    13    14   ar
     4    14    15   ar
     5    15    16   ar
     6    16    17   ar
     7    17    18    1
     8    17    19   ar
     9    19    20   ar
    10    20    21   ar
    11    21     3    1
    12     3     4    1
    13     5     4    1
    14     5     6    1
    15     6     7    1
    16     8     7    1
    17     8     9    1
    18     8    10    1
    19    10     2    1
    20     2     1    1
    21    22     1    1
    22    22    30    1
    23    30    31   am
    24    31    32    2
    25    31    34    1
    26    34    35    1
    27    35    36    1
    28    36    37    1
    29    37    38    2
    30    37    39    2
    31    37    40    1
    32    40    41    1
    33    22    23    1
    34    23    24   ar
    35    24    25   ar
    36    25    26   ar
    37    26    27   ar
    38    27    28    1
    39    27    29   ar
    40    21    12   ar
    41     9     3    1
    42    41    34    1
    43    29    23   ar
    44    20    14   ar
    45    10     5    1
    46    30    33    1
