@<TRIPOS>MOLECULE
*****
 35 38 0 0 0
SMALL
GASTEIGER

@<TRIPOS>ATOM
      1 C         142.0389  140.8575  167.3006 C.ar    1  UNL1        0.1432
      2 C         143.1902  141.7489  167.6609 C.ar    1  UNL1        0.0371
      3 C         143.1930  142.4774  168.9721 C.ar    1  UNL1        0.0047
      4 C         142.0444  142.3146  169.9229 C.ar    1  UNL1        0.0195
      5 C         140.8930  141.4233  169.5626 C.ar    1  UNL1        0.0887
      6 N         139.7444  141.2604  170.5135 N.ar    1  UNL1       -0.2238
      7 C         138.5931  140.3691  170.1532 C.ar    1  UNL1        0.2000
      8 N         138.5903  139.6405  168.8421 N.ar    1  UNL1       -0.2088
      9 C         139.7389  139.8033  167.8912 C.ar    1  UNL1        0.1383
     10 C         140.8903  140.6947  168.2515 C.ar    1  UNL1        0.0833
     11 N         139.7361  139.0747  166.5800 N.pl3   1  UNL1       -0.2977
     12 H         140.1394  138.1791  166.5137 H       1  UNL1        0.1536
     13 C         139.1189  139.7108  165.3699 C.ar    1  UNL1        0.0504
     14 C         138.7616  141.1675  165.3881 C.ar    1  UNL1        0.0178
     15 C         138.1444  141.8035  164.1779 C.ar    1  UNL1        0.0391
     16 C         137.8845  140.9829  162.9495 C.ar    1  UNL1        0.1496
     17 C         138.2418  139.5261  162.9313 C.ar    1  UNL1        0.0928
     18 CL        137.9819  138.7055  161.7029 Cl      1  UNL1       -0.0790
     19 C         138.8590  138.8901  164.1414 C.ar    1  UNL1        0.0291
     20 O         137.2673  141.6189  161.7394 O.3     1  UNL1       -0.4681
     21 C         138.1179  142.4142  160.7939 C.3     1  UNL1        0.2508
     22 C         139.1602  143.3506  161.3295 C.ar    1  UNL1        0.1026
     23 C         140.6001  142.9314  161.3607 C.ar    1  UNL1        0.0185
     24 C         141.6424  143.8678  161.8963 C.ar    1  UNL1        0.0029
     25 C         141.2448  145.2233  162.4006 C.ar    1  UNL1        0.0207
     26 C         139.8049  145.6425  162.3693 C.ar    1  UNL1        0.0986
     27 N         138.7626  144.7062  161.8338 N.ar    1  UNL1       -0.2445
     28 O         142.0361  140.1289  165.9894 O.3     1  UNL1       -0.4698
     29 C         143.7263  138.2077  166.4390 C.3     1  UNL1        0.0574
     30 C         143.2352  139.3297  165.5730 C.3     1  UNL1        0.2413
     31 C         143.9432  139.6523  164.2905 C.2     1  UNL1        0.2660
     32 O         145.1082  140.5971  164.2942 O.2     1  UNL1       -0.2710
     33 N         143.4861  139.0303  163.0044 N.am    1  UNL1       -0.2731
     34 C         144.1941  139.3529  161.7220 C.3     1  UNL1        0.1150
     35 C         142.3210  138.0855  163.0008 C.3     1  UNL1        0.1150
@<TRIPOS>BOND
     1    30    29    1
     2    30    28    1
     3    28     1    1
     4     1     2   ar
     5     2     3   ar
     6     3     4   ar
     7     4     5   ar
     8     5     6   ar
     9     6     7   ar
    10     7     8   ar
    11     8     9   ar
    12     9    11    1
    13    11    13    1
    14    13    14   ar
    15    14    15   ar
    16    15    16   ar
    17    16    20    1
    18    20    21    1
    19    21    22    1
    20    22    23   ar
    21    23    24   ar
    22    24    25   ar
    23    25    26   ar
    24    26    27   ar
    25    16    17   ar
    26    17    18    1
    27    17    19   ar
    28     9    10   ar
    29    30    31    1
    30    31    32    2
    31    31    33   am
    32    33    34    1
    33    33    35    1
    34    10     1   ar
    35    10     5   ar
    36    19    13   ar
    37    27    22   ar
    38    11    12    1
@<TRIPOS>MOLECULE
*****
 35 38 0 0 0
SMALL
GASTEIGER

@<TRIPOS>ATOM
      1 C         142.2238  141.5651  168.1553 C.ar    1  UNL1        0.1432
      2 C         143.0640  142.5199  168.9505 C.ar    1  UNL1        0.0371
      3 C         142.6396  142.9211  170.3321 C.ar    1  UNL1        0.0047
      4 C         141.3748  142.3675  170.9185 C.ar    1  UNL1        0.0195
      5 C         140.5346  141.4127  170.1234 C.ar    1  UNL1        0.0887
      6 N         139.2698  140.8591  170.7098 N.ar    1  UNL1       -0.2238
      7 C         138.4295  139.9043  169.9146 C.ar    1  UNL1        0.2000
      8 N         138.8540  139.5031  168.5330 N.ar    1  UNL1       -0.2088
      9 C         140.1187  140.0567  167.9466 C.ar    1  UNL1        0.1383
     10 C         140.9591  141.0116  168.7417 C.ar    1  UNL1        0.0833
     11 N         140.5432  139.6556  166.5649 N.pl3   1  UNL1       -0.2977
     12 H         141.3175  139.0603  166.4413 H       1  UNL1        0.1536
     13 C         139.7879  140.1613  165.3718 C.ar    1  UNL1        0.0504
     14 C         139.8605  139.4211  164.0692 C.ar    1  UNL1        0.0178
     15 C         139.1051  139.9269  162.8760 C.ar    1  UNL1        0.0391
     16 C         138.2773  141.1730  162.9854 C.ar    1  UNL1        0.1496
     17 C         138.2048  141.9133  164.2880 C.ar    1  UNL1        0.0928
     18 CL        137.3770  143.1593  164.3974 Cl      1  UNL1       -0.0790
     19 C         138.9601  141.4075  165.4811 C.ar    1  UNL1        0.0291
     20 O         137.5220  141.6788  161.7922 O.3     1  UNL1       -0.4681
     21 C         138.1601  142.6715  160.8663 C.3     1  UNL1        0.2508
     22 C         139.4903  143.2724  161.2122 C.ar    1  UNL1        0.1026
     23 C         139.5554  144.5973  161.9124 C.ar    1  UNL1        0.0185
     24 C         140.8855  145.1983  162.2583 C.ar    1  UNL1        0.0029
     25 C         142.1505  144.4743  161.9040 C.ar    1  UNL1        0.0207
     26 C         142.0854  143.1494  161.2038 C.ar    1  UNL1        0.0986
     27 N         140.7553  142.5484  160.8579 N.ar    1  UNL1       -0.2445
     28 O         142.6482  141.1640  166.7737 O.3     1  UNL1       -0.4698
     29 C         141.6589  143.0768  165.3203 C.3     1  UNL1        0.0574
     30 C         142.8173  142.2066  165.7086 C.3     1  UNL1        0.2413
     31 C         144.1448  142.3789  165.0318 C.2     1  UNL1        0.2660
     32 O         145.0724  143.4741  165.4679 O.2     1  UNL1       -0.2710
     33 N         144.5447  141.4562  163.9188 N.am    1  UNL1       -0.2731
     34 C         145.8722  141.6286  163.2420 C.3     1  UNL1        0.1150
     35 C         143.6171  140.3611  163.4827 C.3     1  UNL1        0.1150
@<TRIPOS>BOND
     1    30    29    1
     2    30    28    1
     3    28     1    1
     4     1     2   ar
     5     2     3   ar
     6     3     4   ar
     7     4     5   ar
     8     5     6   ar
     9     6     7   ar
    10     7     8   ar
    11     8     9   ar
    12     9    11    1
    13    11    13    1
    14    13    14   ar
    15    14    15   ar
    16    15    16   ar
    17    16    20    1
    18    20    21    1
    19    21    22    1
    20    22    23   ar
    21    23    24   ar
    22    24    25   ar
    23    25    26   ar
    24    26    27   ar
    25    16    17   ar
    26    17    18    1
    27    17    19   ar
    28     9    10   ar
    29    30    31    1
    30    31    32    2
    31    31    33   am
    32    33    34    1
    33    33    35    1
    34    10     1   ar
    35    10     5   ar
    36    19    13   ar
    37    27    22   ar
    38    11    12    1
@<TRIPOS>MOLECULE
*****
 35 38 0 0 0
SMALL
GASTEIGER

@<TRIPOS>ATOM
      1 C         141.2841  142.7641  160.7129 C.ar    1  UNL1        0.1432
      2 C         141.8599  143.7119  159.7029 C.ar    1  UNL1        0.0371
      3 C         141.3256  145.1094  159.5960 C.ar    1  UNL1        0.0047
      4 C         140.2155  145.5591  160.4990 C.ar    1  UNL1        0.0195
      5 C         139.6398  144.6113  161.5090 C.ar    1  UNL1        0.0887
      6 N         138.5296  145.0610  162.4121 N.ar    1  UNL1       -0.2238
      7 C         137.9539  144.1132  163.4220 C.ar    1  UNL1        0.2000
      8 N         138.4882  142.7156  163.5290 N.ar    1  UNL1       -0.2088
      9 C         139.5982  142.2659  162.6260 C.ar    1  UNL1        0.1383
     10 C         140.1740  143.2138  161.6159 C.ar    1  UNL1        0.0833
     11 N         140.1325  140.8684  162.7329 N.pl3   1  UNL1       -0.2977
     12 H         139.9661  140.2211  162.0100 H       1  UNL1        0.1536
     13 C         140.9204  140.4571  163.9412 C.ar    1  UNL1        0.0504
     14 C         140.9522  139.0175  164.3615 C.ar    1  UNL1        0.0178
     15 C         141.7401  138.6062  165.5699 C.ar    1  UNL1        0.0391
     16 C         142.4962  139.6345  166.3579 C.ar    1  UNL1        0.1496
     17 C         142.4644  141.0741  165.9376 C.ar    1  UNL1        0.0928
     18 CL        143.2204  142.1023  166.7256 Cl      1  UNL1       -0.0790
     19 C         141.6765  141.4854  164.7293 C.ar    1  UNL1        0.0291
     20 O         143.2841  139.2232  167.5662 O.3     1  UNL1       -0.4681
     21 C         142.6001  139.0756  168.8930 C.3     1  UNL1        0.2508
     22 C         141.7242  140.1773  169.4119 C.ar    1  UNL1        0.1026
     23 C         140.2333  140.0733  169.2842 C.ar    1  UNL1        0.0185
     24 C         139.3574  141.1749  169.8031 C.ar    1  UNL1        0.0029
     25 C         139.9725  142.3804  170.4498 C.ar    1  UNL1        0.0207
     26 C         141.4634  142.4844  170.5775 C.ar    1  UNL1        0.0986
     27 N         142.3393  141.3828  170.0586 N.ar    1  UNL1       -0.2445
     28 O         141.8184  141.3665  160.8199 O.3     1  UNL1       -0.4698
     29 C         143.9622  141.1082  159.3751 C.3     1  UNL1        0.0574
     30 C         143.2941  141.1179  160.7181 C.3     1  UNL1        0.2413
     31 C         144.1019  140.8791  161.9593 C.2     1  UNL1        0.2660
     32 O         144.2646  139.4862  162.4917 O.2     1  UNL1       -0.2710
     33 N         144.7468  142.0331  162.6680 N.am    1  UNL1       -0.2731
     34 C         145.5545  141.7942  163.9093 C.3     1  UNL1        0.1150
     35 C         144.5840  143.4259  162.1356 C.3     1  UNL1        0.1150
@<TRIPOS>BOND
     1    30    29    1
     2    30    28    1
     3    28     1    1
     4     1     2   ar
     5     2     3   ar
     6     3     4   ar
     7     4     5   ar
     8     5     6   ar
     9     6     7   ar
    10     7     8   ar
    11     8     9   ar
    12     9    11    1
    13    11    13    1
    14    13    14   ar
    15    14    15   ar
    16    15    16   ar
    17    16    20    1
    18    20    21    1
    19    21    22    1
    20    22    23   ar
    21    23    24   ar
    22    24    25   ar
    23    25    26   ar
    24    26    27   ar
    25    16    17   ar
    26    17    18    1
    27    17    19   ar
    28     9    10   ar
    29    30    31    1
    30    31    32    2
    31    31    33   am
    32    33    34    1
    33    33    35    1
    34    10     1   ar
    35    10     5   ar
    36    19    13   ar
    37    27    22   ar
    38    11    12    1
@<TRIPOS>MOLECULE
*****
 35 38 0 0 0
SMALL
GASTEIGER

@<TRIPOS>ATOM
      1 C         141.5259  143.1715  164.2978 C.ar    1  UNL1        0.1432
      2 C         142.1746  144.4687  163.9151 C.ar    1  UNL1        0.0371
      3 C         143.6591  144.5329  163.7094 C.ar    1  UNL1        0.0047
      4 C         144.4948  143.3000  163.8864 C.ar    1  UNL1        0.0195
      5 C         143.8461  142.0028  164.2692 C.ar    1  UNL1        0.0887
      6 N         144.6818  140.7698  164.4462 N.ar    1  UNL1       -0.2238
      7 C         144.0331  139.4726  164.8289 C.ar    1  UNL1        0.2000
      8 N         142.5487  139.4084  165.0346 N.ar    1  UNL1       -0.2088
      9 C         141.7129  140.6414  164.8576 C.ar    1  UNL1        0.1383
     10 C         142.3617  141.9386  164.4748 C.ar    1  UNL1        0.0833
     11 N         140.2285  140.5771  165.0633 N.pl3   1  UNL1       -0.2977
     12 H         139.6196  140.7176  164.3025 H       1  UNL1        0.1536
     13 C         139.6718  140.2989  166.4280 C.ar    1  UNL1        0.0504
     14 C         138.5501  139.3170  166.5946 C.ar    1  UNL1        0.0178
     15 C         137.9934  139.0388  167.9595 C.ar    1  UNL1        0.0391
     16 C         138.5584  139.7424  169.1576 C.ar    1  UNL1        0.1496
     17 C         139.6801  140.7242  168.9911 C.ar    1  UNL1        0.0928
     18 CL        140.2451  141.4278  170.1893 Cl      1  UNL1       -0.0790
     19 C         140.2368  141.0025  167.6263 C.ar    1  UNL1        0.0291
     20 O         138.0016  139.4641  170.5224 O.3     1  UNL1       -0.4681
     21 C         136.5757  139.0245  170.6754 C.3     1  UNL1        0.2508
     22 C         136.1955  138.0831  171.7796 C.ar    1  UNL1        0.1026
     23 C         134.9641  138.3428  172.5959 C.ar    1  UNL1        0.0185
     24 C         134.5839  137.4014  173.7000 C.ar    1  UNL1        0.0029
     25 C         135.4351  136.2003  173.9879 C.ar    1  UNL1        0.0207
     26 C         136.6664  135.9406  173.1716 C.ar    1  UNL1        0.0986
     27 N         137.0467  136.8820  172.0675 N.ar    1  UNL1       -0.2445
     28 O         140.0415  143.1073  164.5035 O.3     1  UNL1       -0.4698
     29 C         138.7848  144.9951  163.2358 C.3     1  UNL1        0.0574
     30 C         139.1131  143.5416  163.4084 C.3     1  UNL1        0.2413
     31 C         138.5129  142.5225  162.4857 C.2     1  UNL1        0.2660
     32 O         137.2148  141.8606  162.8420 O.2     1  UNL1       -0.2710
     33 N         139.2107  142.1653  161.2069 N.am    1  UNL1       -0.2731
     34 C         138.6105  141.1462  160.2843 C.3     1  UNL1        0.1150
     35 C         140.5087  142.8272  160.8506 C.3     1  UNL1        0.1150
@<TRIPOS>BOND
     1    30    29    1
     2    30    28    1
     3    28     1    1
     4     1     2   ar
     5     2     3   ar
     6     3     4   ar
     7     4     5   ar
     8     5     6   ar
     9     6     7   ar
    10     7     8   ar
    11     8     9   ar
    12     9    11    1
    13    11    13    1
    14    13    14   ar
    15    14    15   ar
    16    15    16   ar
    17    16    20    1
    18    20    21    1
    19    21    22    1
    20    22    23   ar
    21    23    24   ar
    22    24    25   ar
    23    25    26   ar
    24    26    27   ar
    25    16    17   ar
    26    17    18    1
    27    17    19   ar
    28     9    10   ar
    29    30    31    1
    30    31    32    2
    31    31    33   am
    32    33    34    1
    33    33    35    1
    34    10     1   ar
    35    10     5   ar
    36    19    13   ar
    37    27    22   ar
    38    11    12    1
@<TRIPOS>MOLECULE
*****
 35 38 0 0 0
SMALL
GASTEIGER

@<TRIPOS>ATOM
      1 C         144.1481  141.0656  160.5902 C.ar    1  UNL1        0.1432
      2 C         144.4631  142.4237  160.0370 C.ar    1  UNL1        0.0371
      3 C         144.2803  142.6985  158.5737 C.ar    1  UNL1        0.0047
      4 C         143.7826  141.6150  157.6637 C.ar    1  UNL1        0.0195
      5 C         143.4676  140.2568  158.2169 C.ar    1  UNL1        0.0887
      6 N         142.9699  139.1732  157.3068 N.ar    1  UNL1       -0.2238
      7 C         142.6549  137.8150  157.8599 C.ar    1  UNL1        0.2000
      8 N         142.8377  137.5403  159.3232 N.ar    1  UNL1       -0.2088
      9 C         143.3354  138.6238  160.2333 C.ar    1  UNL1        0.1383
     10 C         143.6504  139.9821  159.6801 C.ar    1  UNL1        0.0833
     11 N         143.5182  138.3491  161.6965 N.pl3   1  UNL1       -0.2977
     12 H         144.4243  138.2900  162.0769 H       1  UNL1        0.1536
     13 C         142.3203  138.1644  162.5803 C.ar    1  UNL1        0.0504
     14 C         142.4955  138.0410  164.0649 C.ar    1  UNL1        0.0178
     15 C         141.2976  137.8563  164.9487 C.ar    1  UNL1        0.0391
     16 C         139.9246  137.7950  164.3479 C.ar    1  UNL1        0.1496
     17 C         139.7494  137.9184  162.8632 C.ar    1  UNL1        0.0928
     18 CL        138.3764  137.8571  162.2624 Cl      1  UNL1       -0.0790
     19 C         140.9472  138.1031  161.9795 C.ar    1  UNL1        0.0291
     20 O         138.7268  137.6103  165.2316 O.3     1  UNL1       -0.4681
     21 C         138.2605  138.7352  166.1076 C.3     1  UNL1        0.2508
     22 C         138.6630  140.1459  165.7946 C.ar    1  UNL1        0.1026
     23 C         139.7452  140.8115  166.5920 C.ar    1  UNL1        0.0185
     24 C         140.1477  142.2222  166.2790 C.ar    1  UNL1        0.0029
     25 C         139.4680  142.9673  165.1688 C.ar    1  UNL1        0.0207
     26 C         138.3858  142.3017  164.3714 C.ar    1  UNL1        0.0986
     27 N         137.9832  140.8910  164.6843 N.ar    1  UNL1       -0.2445
     28 O         144.3309  140.7908  162.0534 O.3     1  UNL1       -0.4698
     29 C         143.8976  141.5091  164.5124 C.3     1  UNL1        0.0574
     30 C         143.5069  141.5318  163.0643 C.3     1  UNL1        0.2413
     31 C         142.2920  142.2955  162.6272 C.2     1  UNL1        0.2660
     32 O         141.0379  141.5610  162.2560 O.2     1  UNL1       -0.2710
     33 N         142.3313  143.7935  162.5612 N.am    1  UNL1       -0.2731
     34 C         141.1165  144.5571  162.1240 C.3     1  UNL1        0.1150
     35 C         143.5855  144.5279  162.9324 C.3     1  UNL1        0.1150
@<TRIPOS>BOND
     1    30    29    1
     2    30    28    1
     3    28     1    1
     4     1     2   ar
     5     2     3   ar
     6     3     4   ar
     7     4     5   ar
     8     5     6   ar
     9     6     7   ar
    10     7     8   ar
    11     8     9   ar
    12     9    11    1
    13    11    13    1
    14    13    14   ar
    15    14    15   ar
    16    15    16   ar
    17    16    20    1
    18    20    21    1
    19    21    22    1
    20    22    23   ar
    21    23    24   ar
    22    24    25   ar
    23    25    26   ar
    24    26    27   ar
    25    16    17   ar
    26    17    18    1
    27    17    19   ar
    28     9    10   ar
    29    30    31    1
    30    31    32    2
    31    31    33   am
    32    33    34    1
    33    33    35    1
    34    10     1   ar
    35    10     5   ar
    36    19    13   ar
    37    27    22   ar
    38    11    12    1
@<TRIPOS>MOLECULE
*****
 35 38 0 0 0
SMALL
GASTEIGER

@<TRIPOS>ATOM
      1 C         140.6984  143.2906  163.3619 C.ar    1  UNL1        0.1432
      2 C         140.2336  144.7153  163.2983 C.ar    1  UNL1        0.0371
      3 C         138.8233  145.0268  162.8934 C.ar    1  UNL1        0.0047
      4 C         137.8777  143.9136  162.5522 C.ar    1  UNL1        0.0195
      5 C         138.3425  142.4888  162.6157 C.ar    1  UNL1        0.0887
      6 N         137.3969  141.3755  162.2744 N.ar    1  UNL1       -0.2238
      7 C         137.8617  139.9508  162.3380 C.ar    1  UNL1        0.2000
      8 N         139.2720  139.6393  162.7428 N.ar    1  UNL1       -0.2088
      9 C         140.2176  140.7525  163.0841 C.ar    1  UNL1        0.1383
     10 C         139.7528  142.1774  163.0206 C.ar    1  UNL1        0.0833
     11 N         141.6279  140.4411  163.4890 N.pl3   1  UNL1       -0.2977
     12 H         142.3568  140.5165  162.8315 H       1  UNL1        0.1536
     13 C         141.9277  140.0147  164.8955 C.ar    1  UNL1        0.0504
     14 C         141.1238  140.5683  166.0345 C.ar    1  UNL1        0.0178
     15 C         141.4236  140.1420  167.4411 C.ar    1  UNL1        0.0391
     16 C         142.5273  139.1620  167.7086 C.ar    1  UNL1        0.1496
     17 C         143.3312  138.6085  166.5696 C.ar    1  UNL1        0.0928
     18 CL        144.4349  137.6285  166.8371 Cl      1  UNL1       -0.0790
     19 C         143.0314  139.0348  165.1631 C.ar    1  UNL1        0.0291
     20 O         142.8271  138.7357  169.1151 O.3     1  UNL1       -0.4681
     21 C         142.9255  139.7617  170.2049 C.3     1  UNL1        0.2508
     22 C         141.9914  140.9353  170.2168 C.ar    1  UNL1        0.1026
     23 C         140.5234  140.7231  170.4405 C.ar    1  UNL1        0.0185
     24 C         139.5892  141.8966  170.4524 C.ar    1  UNL1        0.0029
     25 C         140.1231  143.2823  170.2406 C.ar    1  UNL1        0.0207
     26 C         141.5910  143.4944  170.0169 C.ar    1  UNL1        0.0986
     27 N         142.5252  142.3209  170.0050 N.ar    1  UNL1       -0.2445
     28 O         142.1087  142.9791  163.7667 O.3     1  UNL1       -0.4698
     29 C         143.6887  145.0168  163.4485 C.3     1  UNL1        0.0574
     30 C         143.2553  143.6354  163.0563 C.3     1  UNL1        0.2413
     31 C         143.9684  142.9103  161.9537 C.2     1  UNL1        0.2660
     32 O         145.1725  142.0712  162.2640 O.2     1  UNL1       -0.2710
     33 N         143.4775  143.0242  160.5410 N.am    1  UNL1       -0.2731
     34 C         144.1907  142.2991  159.4383 C.3     1  UNL1        0.1150
     35 C         142.2735  143.8633  160.2307 C.3     1  UNL1        0.1150
@<TRIPOS>BOND
     1    30    29    1
     2    30    28    1
     3    28     1    1
     4     1     2   ar
     5     2     3   ar
     6     3     4   ar
     7     4     5   ar
     8     5     6   ar
     9     6     7   ar
    10     7     8   ar
    11     8     9   ar
    12     9    11    1
    13    11    13    1
    14    13    14   ar
    15    14    15   ar
    16    15    16   ar
    17    16    20    1
    18    20    21    1
    19    21    22    1
    20    22    23   ar
    21    23    24   ar
    22    24    25   ar
    23    25    26   ar
    24    26    27   ar
    25    16    17   ar
    26    17    18    1
    27    17    19   ar
    28     9    10   ar
    29    30    31    1
    30    31    32    2
    31    31    33   am
    32    33    34    1
    33    33    35    1
    34    10     1   ar
    35    10     5   ar
    36    19    13   ar
    37    27    22   ar
    38    11    12    1
@<TRIPOS>MOLECULE
*****
 35 38 0 0 0
SMALL
GASTEIGER

@<TRIPOS>ATOM
      1 C         141.8206  142.9085  163.0335 C.ar    1  UNL1        0.1432
      2 C         142.6355  144.1594  162.8883 C.ar    1  UNL1        0.0371
      3 C         144.0819  144.0715  162.5007 C.ar    1  UNL1        0.0047
      4 C         144.7134  142.7327  162.2584 C.ar    1  UNL1        0.0195
      5 C         143.8986  141.4818  162.4037 C.ar    1  UNL1        0.0887
      6 N         144.5301  140.1429  162.1613 N.ar    1  UNL1       -0.2238
      7 C         143.7152  138.8920  162.3066 C.ar    1  UNL1        0.2000
      8 N         142.2688  138.9799  162.6941 N.ar    1  UNL1       -0.2088
      9 C         141.6373  140.3187  162.9364 C.ar    1  UNL1        0.1383
     10 C         142.4521  141.5697  162.7912 C.ar    1  UNL1        0.0833
     11 N         140.1909  140.4065  163.3239 N.pl3   1  UNL1       -0.2977
     12 H         139.5108  140.6160  162.6435 H       1  UNL1        0.1536
     13 C         139.7805  140.1752  164.7480 C.ar    1  UNL1        0.0504
     14 C         140.3089  141.0640  165.8346 C.ar    1  UNL1        0.0178
     15 C         139.8986  140.8326  167.2587 C.ar    1  UNL1        0.0391
     16 C         138.9599  139.7124  167.5962 C.ar    1  UNL1        0.1496
     17 C         138.4315  138.8236  166.5096 C.ar    1  UNL1        0.0928
     18 CL        137.4928  137.7033  166.8470 Cl      1  UNL1       -0.0790
     19 C         138.8418  139.0549  165.0855 C.ar    1  UNL1        0.0291
     20 O         138.5495  139.4810  169.0203 O.3     1  UNL1       -0.4681
     21 C         138.8990  140.4890  170.0747 C.3     1  UNL1        0.2508
     22 C         140.2610  141.1175  170.0894 C.ar    1  UNL1        0.1026
     23 C         140.3993  142.6094  170.0186 C.ar    1  UNL1        0.0185
     24 C         141.7612  143.2379  170.0333 C.ar    1  UNL1        0.0029
     25 C         142.9847  142.3745  170.1188 C.ar    1  UNL1        0.0207
     26 C         142.8464  140.8826  170.1896 C.ar    1  UNL1        0.0986
     27 N         141.4846  140.2541  170.1749 N.ar    1  UNL1       -0.2445
     28 O         140.3742  142.9963  163.4210 O.3     1  UNL1       -0.4698
     29 C         137.8851  143.3253  162.7532 C.3     1  UNL1        0.0574
     30 C         139.3397  143.3299  162.3873 C.3     1  UNL1        0.2413
     31 C         139.7599  143.6682  160.9876 C.2     1  UNL1        0.2660
     32 O         139.9359  142.5774  159.9730 O.2     1  UNL1       -0.2710
     33 N         140.0042  145.0972  160.6025 N.am    1  UNL1       -0.2731
     34 C         140.4244  145.4354  159.2028 C.3     1  UNL1        0.1150
     35 C         139.8282  146.1879  161.6170 C.3     1  UNL1        0.1150
@<TRIPOS>BOND
     1    30    29    1
     2    30    28    1
     3    28     1    1
     4     1     2   ar
     5     2     3   ar
     6     3     4   ar
     7     4     5   ar
     8     5     6   ar
     9     6     7   ar
    10     7     8   ar
    11     8     9   ar
    12     9    11    1
    13    11    13    1
    14    13    14   ar
    15    14    15   ar
    16    15    16   ar
    17    16    20    1
    18    20    21    1
    19    21    22    1
    20    22    23   ar
    21    23    24   ar
    22    24    25   ar
    23    25    26   ar
    24    26    27   ar
    25    16    17   ar
    26    17    18    1
    27    17    19   ar
    28     9    10   ar
    29    30    31    1
    30    31    32    2
    31    31    33   am
    32    33    34    1
    33    33    35    1
    34    10     1   ar
    35    10     5   ar
    36    19    13   ar
    37    27    22   ar
    38    11    12    1
@<TRIPOS>MOLECULE
*****
 35 38 0 0 0
SMALL
GASTEIGER

@<TRIPOS>ATOM
      1 C         138.2169  142.2141  163.1453 C.ar    1  UNL1        0.1432
      2 C         138.0456  142.6739  164.5628 C.ar    1  UNL1        0.0371
      3 C         138.4354  144.0693  164.9509 C.ar    1  UNL1        0.0047
      4 C         138.9966  145.0050  163.9217 C.ar    1  UNL1        0.0195
      5 C         139.1679  144.5453  162.5042 C.ar    1  UNL1        0.0887
      6 N         139.7291  145.4810  161.4748 N.ar    1  UNL1       -0.2238
      7 C         139.9005  145.0212  160.0574 C.ar    1  UNL1        0.2000
      8 N         139.5107  143.6257  159.6692 N.ar    1  UNL1       -0.2088
      9 C         138.9495  142.6900  160.6985 C.ar    1  UNL1        0.1383
     10 C         138.7781  143.1498  162.1161 C.ar    1  UNL1        0.0833
     11 N         138.5596  141.2946  160.3104 N.pl3   1  UNL1       -0.2977
     12 H         137.6187  141.0113  160.3713 H       1  UNL1        0.1536
     13 C         139.6033  140.3306  159.8293 C.ar    1  UNL1        0.0504
     14 C         139.2608  139.3176  158.7774 C.ar    1  UNL1        0.0178
     15 C         140.3046  138.3536  158.2964 C.ar    1  UNL1        0.0391
     16 C         141.6908  138.4027  158.8673 C.ar    1  UNL1        0.1496
     17 C         142.0334  139.4157  159.9192 C.ar    1  UNL1        0.0928
     18 CL        143.4196  139.4648  160.4900 Cl      1  UNL1       -0.0790
     19 C         140.9896  140.3797  160.4002 C.ar    1  UNL1        0.0291
     20 O         142.7345  137.4388  158.3862 O.3     1  UNL1       -0.4681
     21 C         142.7499  137.0048  156.9505 C.3     1  UNL1        0.2508
     22 C         142.5478  135.5600  156.6015 C.ar    1  UNL1        0.1026
     23 C         143.3312  134.4991  157.3162 C.ar    1  UNL1        0.0185
     24 C         143.1292  133.0543  156.9673 C.ar    1  UNL1        0.0029
     25 C         142.1438  132.6704  155.9036 C.ar    1  UNL1        0.0207
     26 C         141.3604  133.7313  155.1888 C.ar    1  UNL1        0.0986
     27 N         141.5624  135.1761  155.5378 N.ar    1  UNL1       -0.2445
     28 O         137.8271  140.8186  162.7572 O.3     1  UNL1       -0.4698
     29 C         138.4178  138.2915  162.6365 C.3     1  UNL1        0.0574
     30 C         138.6509  139.6536  163.2197 C.3     1  UNL1        0.2413
     31 C         139.7080  139.8507  164.2656 C.2     1  UNL1        0.2660
     32 O         141.0770  140.3187  163.8694 O.2     1  UNL1       -0.2710
     33 N         139.3962  139.5799  165.7076 N.am    1  UNL1       -0.2731
     34 C         140.4533  139.7770  166.7534 C.3     1  UNL1        0.1150
     35 C         138.0272  139.1119  166.1038 C.3     1  UNL1        0.1150
@<TRIPOS>BOND
     1    30    29    1
     2    30    28    1
     3    28     1    1
     4     1     2   ar
     5     2     3   ar
     6     3     4   ar
     7     4     5   ar
     8     5     6   ar
     9     6     7   ar
    10     7     8   ar
    11     8     9   ar
    12     9    11    1
    13    11    13    1
    14    13    14   ar
    15    14    15   ar
    16    15    16   ar
    17    16    20    1
    18    20    21    1
    19    21    22    1
    20    22    23   ar
    21    23    24   ar
    22    24    25   ar
    23    25    26   ar
    24    26    27   ar
    25    16    17   ar
    26    17    18    1
    27    17    19   ar
    28     9    10   ar
    29    30    31    1
    30    31    32    2
    31    31    33   am
    32    33    34    1
    33    33    35    1
    34    10     1   ar
    35    10     5   ar
    36    19    13   ar
    37    27    22   ar
    38    11    12    1
@<TRIPOS>MOLECULE
*****
 35 38 0 0 0
SMALL
GASTEIGER

@<TRIPOS>ATOM
      1 C         141.3315  145.1865  158.5598 C.ar    1  UNL1        0.1432
      2 C         140.2981  145.9607  157.7966 C.ar    1  UNL1        0.0371
      3 C         140.1625  145.7720  156.3147 C.ar    1  UNL1        0.0047
      4 C         141.0603  144.8090  155.5960 C.ar    1  UNL1        0.0195
      5 C         142.0938  144.0348  156.3592 C.ar    1  UNL1        0.0887
      6 N         142.9917  143.0718  155.6405 N.ar    1  UNL1       -0.2238
      7 C         144.0252  142.2976  156.4037 C.ar    1  UNL1        0.2000
      8 N         144.1607  142.4863  157.8856 N.ar    1  UNL1       -0.2088
      9 C         143.2629  143.4493  158.6043 C.ar    1  UNL1        0.1383
     10 C         142.2294  144.2236  157.8411 C.ar    1  UNL1        0.0833
     11 N         143.3985  143.6380  160.0862 N.pl3   1  UNL1       -0.2977
     12 H         143.3486  144.5416  160.4739 H       1  UNL1        0.1536
     13 C         143.6101  142.4501  160.9773 C.ar    1  UNL1        0.0504
     14 C         142.7514  141.2306  160.8180 C.ar    1  UNL1        0.0178
     15 C         142.9631  140.0427  161.7092 C.ar    1  UNL1        0.0391
     16 C         144.0335  140.0743  162.7595 C.ar    1  UNL1        0.1496
     17 C         144.8922  141.2938  162.9187 C.ar    1  UNL1        0.0928
     18 CL        145.9626  141.3254  163.9691 Cl      1  UNL1       -0.0790
     19 C         144.6806  142.4817  162.0277 C.ar    1  UNL1        0.0291
     20 O         144.2451  138.8864  163.6506 O.3     1  UNL1       -0.4681
     21 C         143.5953  138.8371  165.0016 C.3     1  UNL1        0.2508
     22 C         142.1005  138.7808  165.1133 C.ar    1  UNL1        0.1026
     23 C         141.3488  139.9348  165.7078 C.ar    1  UNL1        0.0185
     24 C         139.8541  139.8785  165.8194 C.ar    1  UNL1        0.0029
     25 C         139.1110  138.6683  165.3367 C.ar    1  UNL1        0.0207
     26 C         139.8626  137.5143  164.7422 C.ar    1  UNL1        0.0986
     27 N         141.3574  137.5706  164.6305 N.ar    1  UNL1       -0.2445
     28 O         141.4671  145.3752  160.0417 O.3     1  UNL1       -0.4698
     29 C         139.6948  146.3585  161.6671 C.3     1  UNL1        0.0574
     30 C         140.2763  145.1862  160.9339 C.3     1  UNL1        0.2413
     31 C         139.6668  143.8248  161.0929 C.2     1  UNL1        0.2660
     32 O         138.6973  143.3129  160.0691 O.2     1  UNL1       -0.2710
     33 N         140.0268  142.9754  162.2756 N.am    1  UNL1       -0.2731
     34 C         139.4173  141.6140  162.4346 C.3     1  UNL1        0.1150
     35 C         140.9963  143.4873  163.2993 C.3     1  UNL1        0.1150
@<TRIPOS>BOND
     1    30    29    1
     2    30    28    1
     3    28     1    1
     4     1     2   ar
     5     2     3   ar
     6     3     4   ar
     7     4     5   ar
     8     5     6   ar
     9     6     7   ar
    10     7     8   ar
    11     8     9   ar
    12     9    11    1
    13    11    13    1
    14    13    14   ar
    15    14    15   ar
    16    15    16   ar
    17    16    20    1
    18    20    21    1
    19    21    22    1
    20    22    23   ar
    21    23    24   ar
    22    24    25   ar
    23    25    26   ar
    24    26    27   ar
    25    16    17   ar
    26    17    18    1
    27    17    19   ar
    28     9    10   ar
    29    30    31    1
    30    31    32    2
    31    31    33   am
    32    33    34    1
    33    33    35    1
    34    10     1   ar
    35    10     5   ar
    36    19    13   ar
    37    27    22   ar
    38    11    12    1
