@<TRIPOS>MOLECULE
*****
 25 26 0 0 0
SMALL
GASTEIGER

@<TRIPOS>ATOM
      1 N         138.2337  140.7246  161.4121 N.pl3   1  UNL1       -0.2619
      2 H         138.8735  140.9762  160.7075 H       1  UNL1        0.2588
      3 N         137.6012  143.2020  161.8731 N.pl3   1  UNL1       -0.1293
      4 C         137.6736  141.7739  162.3261 C.cat   1  UNL1        0.3840
      5 H         137.9212  143.4506  160.9759 H       1  UNL1        0.3062
      6 N         137.1861  141.3950  163.6931 N.pl3   1  UNL1       -0.2424
      7 H         136.2206  141.3079  163.8648 H       1  UNL1        0.2649
      8 C         138.1696  141.1489  164.7986 C.ar    1  UNL1        0.1168
      9 C         139.1512  142.2168  165.1807 C.ar    1  UNL1        0.0338
     10 C         140.1348  141.9706  166.2862 C.ar    1  UNL1        0.0087
     11 C         140.1367  140.6566  167.0096 C.ar    1  UNL1        0.0303
     12 I         141.1202  140.4104  168.1151 I       1  UNL1       -0.0425
     13 C         139.1550  139.5887  166.6275 C.ar    1  UNL1        0.0087
     14 C         138.1715  139.8348  165.5220 C.ar    1  UNL1        0.0338
     15 C         137.8188  139.2920  161.5716 C.3     1  UNL1        0.1778
     16 C         138.8548  138.2073  161.5769 C.3     1  UNL1        0.0901
     17 C         139.3392  137.6390  162.8779 C.3     1  UNL1        0.2090
     18 O         140.6789  136.9685  162.9510 O.3     1  UNL1       -0.4753
     19 C         141.8938  137.7599  163.3356 C.ar    1  UNL1        0.1387
     20 C         142.1199  138.1377  164.7695 C.ar    1  UNL1        0.0392
     21 C         143.3347  138.9290  165.1539 C.ar    1  UNL1        0.0327
     22 C         144.3234  139.3426  164.1045 C.ar    1  UNL1        0.1403
     23 F         145.5383  140.1341  164.4891 F       1  UNL1       -0.2042
     24 C         144.0974  138.9649  162.6706 C.ar    1  UNL1        0.0327
     25 C         142.8825  138.1735  162.2861 C.ar    1  UNL1        0.0392
@<TRIPOS>BOND
     1     3     4    2
     2     4     1    1
     3     1    15    1
     4    15    16    1
     5    16    17    1
     6    17    18    1
     7    18    19    1
     8    19    20   ar
     9    20    21   ar
    10    21    22   ar
    11    22    23    1
    12    22    24   ar
    13    24    25   ar
    14     4     6    1
    15     6     8    1
    16     8     9   ar
    17     9    10   ar
    18    10    11   ar
    19    11    12    1
    20    11    13   ar
    21    13    14   ar
    22    25    19   ar
    23    14     8   ar
    24     3     5    1
    25     1     2    1
    26     6     7    1
@<TRIPOS>MOLECULE
*****
 25 26 0 0 0
SMALL
GASTEIGER

@<TRIPOS>ATOM
      1 N         145.1603  139.7050  164.0064 N.pl3   1  UNL1       -0.2619
      2 H         145.9586  139.1435  163.8774 H       1  UNL1        0.2588
      3 N         146.2738  141.8130  162.9738 N.pl3   1  UNL1       -0.1293
      4 C         145.2678  141.1974  163.9006 C.cat   1  UNL1        0.3840
      5 H         146.8635  141.2375  162.4349 H       1  UNL1        0.3062
      6 N         144.3693  142.0742  164.7215 N.pl3   1  UNL1       -0.2424
      7 H         144.4642  142.0963  165.7012 H       1  UNL1        0.2649
      8 C         143.3263  142.9173  164.0498 C.ar    1  UNL1        0.1168
      9 C         143.2902  144.3976  164.2891 C.ar    1  UNL1        0.0338
     10 C         142.2471  145.2407  163.6173 C.ar    1  UNL1        0.0087
     11 C         141.2402  144.6035  162.7064 C.ar    1  UNL1        0.0303
     12 I         140.1970  145.4466  162.0346 I       1  UNL1       -0.0425
     13 C         141.2762  143.1231  162.4671 C.ar    1  UNL1        0.0087
     14 C         142.3192  142.2800  163.1388 C.ar    1  UNL1        0.0338
     15 C         143.8364  139.0680  164.3088 C.3     1  UNL1        0.1778
     16 C         143.5079  138.6506  165.7116 C.3     1  UNL1        0.0901
     17 C         142.7385  139.5746  166.6084 C.3     1  UNL1        0.2090
     18 O         141.2398  139.5184  166.6350 O.3     1  UNL1       -0.4753
     19 C         140.4366  140.6859  166.1431 C.ar    1  UNL1        0.1387
     20 C         139.2410  140.4577  165.2666 C.ar    1  UNL1        0.0392
     21 C         138.4379  141.6252  164.7747 C.ar    1  UNL1        0.0327
     22 C         138.8304  143.0209  165.1594 C.ar    1  UNL1        0.1403
     23 F         138.0273  144.1884  164.6675 F       1  UNL1       -0.2042
     24 C         140.0261  143.2491  166.0359 C.ar    1  UNL1        0.0327
     25 C         140.8292  142.0816  166.5277 C.ar    1  UNL1        0.0392
@<TRIPOS>BOND
     1     3     4    2
     2     4     1    1
     3     1    15    1
     4    15    16    1
     5    16    17    1
     6    17    18    1
     7    18    19    1
     8    19    20   ar
     9    20    21   ar
    10    21    22   ar
    11    22    23    1
    12    22    24   ar
    13    24    25   ar
    14     4     6    1
    15     6     8    1
    16     8     9   ar
    17     9    10   ar
    18    10    11   ar
    19    11    12    1
    20    11    13   ar
    21    13    14   ar
    22    25    19   ar
    23    14     8   ar
    24     3     5    1
    25     1     2    1
    26     6     7    1
@<TRIPOS>MOLECULE
*****
 25 26 0 0 0
SMALL
GASTEIGER

@<TRIPOS>ATOM
      1 N         139.2499  144.9986  163.8843 N.pl3   1  UNL1       -0.2619
      2 H         139.4261  145.2540  164.8186 H       1  UNL1        0.2588
      3 N         139.2656  146.0922  161.5276 N.pl3   1  UNL1       -0.1293
      4 C         139.9943  145.6719  162.7695 C.cat   1  UNL1        0.3840
      5 H         138.2988  145.9261  161.4441 H       1  UNL1        0.3062
      6 N         141.4673  145.9249  162.8967 N.pl3   1  UNL1       -0.2424
      7 H         141.8159  146.8437  162.8368 H       1  UNL1        0.2649
      8 C         142.4091  144.7781  163.1152 C.ar    1  UNL1        0.1168
      9 C         143.5631  144.9253  164.0621 C.ar    1  UNL1        0.0338
     10 C         144.5049  143.7784  164.2806 C.ar    1  UNL1        0.0087
     11 C         144.2927  142.4844  163.5522 C.ar    1  UNL1        0.0303
     12 I         145.2345  141.3375  163.7707 I       1  UNL1       -0.0425
     13 C         143.1387  142.3373  162.6054 C.ar    1  UNL1        0.0087
     14 C         142.1969  143.4841  162.3869 C.ar    1  UNL1        0.0338
     15 C         138.2370  143.9362  163.5755 C.3     1  UNL1        0.1778
     16 C         138.6089  142.4880  163.6953 C.3     1  UNL1        0.0901
     17 C         139.2367  141.9769  164.9581 C.3     1  UNL1        0.2090
     18 O         139.4442  142.9021  166.1204 O.3     1  UNL1       -0.4753
     19 C         140.6373  142.7293  167.0129 C.ar    1  UNL1        0.1387
     20 C         141.9555  142.3128  166.4307 C.ar    1  UNL1        0.0392
     21 C         143.1485  142.1400  167.3233 C.ar    1  UNL1        0.0327
     22 C         143.0234  142.3837  168.7981 C.ar    1  UNL1        0.1403
     23 F         144.2166  142.2109  169.6907 F       1  UNL1       -0.2042
     24 C         141.7053  142.8002  169.3803 C.ar    1  UNL1        0.0327
     25 C         140.5123  142.9730  168.4877 C.ar    1  UNL1        0.0392
@<TRIPOS>BOND
     1     3     4    2
     2     4     1    1
     3     1    15    1
     4    15    16    1
     5    16    17    1
     6    17    18    1
     7    18    19    1
     8    19    20   ar
     9    20    21   ar
    10    21    22   ar
    11    22    23    1
    12    22    24   ar
    13    24    25   ar
    14     4     6    1
    15     6     8    1
    16     8     9   ar
    17     9    10   ar
    18    10    11   ar
    19    11    12    1
    20    11    13   ar
    21    13    14   ar
    22    25    19   ar
    23    14     8   ar
    24     3     5    1
    25     1     2    1
    26     6     7    1
@<TRIPOS>MOLECULE
*****
 25 26 0 0 0
SMALL
GASTEIGER

@<TRIPOS>ATOM
      1 N         143.1616  145.3164  162.8344 N.pl3   1  UNL1       -0.2619
      2 H         143.5637  146.0741  162.3513 H       1  UNL1        0.2588
      3 N         144.8462  143.5753  161.8957 N.pl3   1  UNL1       -0.1293
      4 C         143.9249  144.0340  162.9869 C.cat   1  UNL1        0.3840
      5 H         144.9499  144.1158  161.0794 H       1  UNL1        0.3062
      6 N         143.7668  143.2105  164.2306 N.pl3   1  UNL1       -0.2424
      7 H         144.0853  143.5581  165.0949 H       1  UNL1        0.2649
      8 C         143.1235  141.8575  164.1574 C.ar    1  UNL1        0.1168
      9 C         142.0231  141.6026  163.1705 C.ar    1  UNL1        0.0338
     10 C         141.3798  140.2494  163.0973 C.ar    1  UNL1        0.0087
     11 C         141.8370  139.1513  164.0110 C.ar    1  UNL1        0.0303
     12 I         141.1937  137.7981  163.9379 I       1  UNL1       -0.0425
     13 C         142.9374  139.4062  164.9980 C.ar    1  UNL1        0.0087
     14 C         143.5807  140.7592  165.0712 C.ar    1  UNL1        0.0338
     15 C         141.7858  145.4442  163.4180 C.3     1  UNL1        0.1778
     16 C         140.5924  145.5302  162.5134 C.3     1  UNL1        0.0901
     17 C         139.3094  144.8548  162.8980 C.3     1  UNL1        0.2090
     18 O         138.9637  144.6704  164.3458 O.3     1  UNL1       -0.4753
     19 C         139.1145  143.3228  164.9872 C.ar    1  UNL1        0.1387
     20 C         138.2402  142.1837  164.5536 C.ar    1  UNL1        0.0392
     21 C         138.3911  140.8362  165.1950 C.ar    1  UNL1        0.0327
     22 C         139.4163  140.6277  166.2699 C.ar    1  UNL1        0.1403
     23 F         139.5671  139.2801  166.9113 F       1  UNL1       -0.2042
     24 C         140.2906  141.7668  166.7035 C.ar    1  UNL1        0.0327
     25 C         140.1397  143.1143  166.0622 C.ar    1  UNL1        0.0392
@<TRIPOS>BOND
     1     3     4    2
     2     4     1    1
     3     1    15    1
     4    15    16    1
     5    16    17    1
     6    17    18    1
     7    18    19    1
     8    19    20   ar
     9    20    21   ar
    10    21    22   ar
    11    22    23    1
    12    22    24   ar
    13    24    25   ar
    14     4     6    1
    15     6     8    1
    16     8     9   ar
    17     9    10   ar
    18    10    11   ar
    19    11    12    1
    20    11    13   ar
    21    13    14   ar
    22    25    19   ar
    23    14     8   ar
    24     3     5    1
    25     1     2    1
    26     6     7    1
@<TRIPOS>MOLECULE
*****
 25 26 0 0 0
SMALL
GASTEIGER

@<TRIPOS>ATOM
      1 N         144.8976  139.4086  163.0336 N.pl3   1  UNL1       -0.2619
      2 H         145.7552  138.9275  162.9843 H       1  UNL1        0.2588
      3 N         146.0844  141.7025  163.3160 N.pl3   1  UNL1       -0.1293
      4 C         144.8661  140.8419  163.4747 C.cat   1  UNL1        0.3840
      5 H         146.9047  141.3265  162.9224 H       1  UNL1        0.3062
      6 N         143.6162  141.4147  164.0744 N.pl3   1  UNL1       -0.2424
      7 H         142.9992  141.9415  163.5166 H       1  UNL1        0.2649
      8 C         143.3064  141.1849  165.5239 C.ar    1  UNL1        0.1168
      9 C         143.0149  139.7990  166.0180 C.ar    1  UNL1        0.0338
     10 C         142.7051  139.5692  167.4676 C.ar    1  UNL1        0.0087
     11 C         142.6866  140.7254  168.4230 C.ar    1  UNL1        0.0303
     12 I         142.3768  140.4956  169.8726 I       1  UNL1       -0.0425
     13 C         142.9780  142.1113  167.9289 C.ar    1  UNL1        0.0087
     14 C         143.2879  142.3411  166.4794 C.ar    1  UNL1        0.0338
     15 C         143.6227  138.7082  162.6676 C.3     1  UNL1        0.1778
     16 C         142.8470  139.1450  161.4603 C.3     1  UNL1        0.0901
     17 C         141.4523  139.6746  161.6162 C.3     1  UNL1        0.2090
     18 O         141.0675  140.4197  162.8599 O.3     1  UNL1       -0.4753
     19 C         140.1779  139.7704  163.8782 C.ar    1  UNL1        0.1387
     20 C         139.4948  140.6066  164.9194 C.ar    1  UNL1        0.0392
     21 C         138.6052  139.9573  165.9377 C.ar    1  UNL1        0.0327
     22 C         138.3986  138.4718  165.9148 C.ar    1  UNL1        0.1403
     23 F         137.5089  137.8225  166.9331 F       1  UNL1       -0.2042
     24 C         139.0816  137.6355  164.8736 C.ar    1  UNL1        0.0327
     25 C         139.9713  138.2848  163.8553 C.ar    1  UNL1        0.0392
@<TRIPOS>BOND
     1     3     4    2
     2     4     1    1
     3     1    15    1
     4    15    16    1
     5    16    17    1
     6    17    18    1
     7    18    19    1
     8    19    20   ar
     9    20    21   ar
    10    21    22   ar
    11    22    23    1
    12    22    24   ar
    13    24    25   ar
    14     4     6    1
    15     6     8    1
    16     8     9   ar
    17     9    10   ar
    18    10    11   ar
    19    11    12    1
    20    11    13   ar
    21    13    14   ar
    22    25    19   ar
    23    14     8   ar
    24     3     5    1
    25     1     2    1
    26     6     7    1
@<TRIPOS>MOLECULE
*****
 25 26 0 0 0
SMALL
GASTEIGER

@<TRIPOS>ATOM
      1 N         139.7349  145.1652  164.3199 N.pl3   1  UNL1       -0.2619
      2 H         139.6392  146.1398  164.4206 H       1  UNL1        0.2588
      3 N         142.2635  145.1963  163.7238 N.pl3   1  UNL1       -0.1293
      4 C         141.0938  144.5338  164.3894 C.cat   1  UNL1        0.3840
      5 H         142.1393  146.0455  163.2414 H       1  UNL1        0.3062
      6 N         141.2831  143.2401  165.1245 N.pl3   1  UNL1       -0.2424
      7 H         141.1747  143.2092  166.1025 H       1  UNL1        0.2649
      8 C         141.6376  141.9935  164.3695 C.ar    1  UNL1        0.1168
      9 C         141.2441  141.8516  162.9289 C.ar    1  UNL1        0.0338
     10 C         141.5986  140.6049  162.1739 C.ar    1  UNL1        0.0087
     11 C         142.3465  139.5001  162.8593 C.ar    1  UNL1        0.0303
     12 I         142.7011  138.2533  162.1043 I       1  UNL1       -0.0425
     13 C         142.7400  139.6419  164.2999 C.ar    1  UNL1        0.0087
     14 C         142.3855  140.8885  165.0549 C.ar    1  UNL1        0.0338
     15 C         138.5218  144.3115  164.0971 C.3     1  UNL1        0.1778
     16 C         137.9478  144.1692  162.7187 C.3     1  UNL1        0.0901
     17 C         137.7701  142.8066  162.1172 C.3     1  UNL1        0.2090
     18 O         137.0365  141.7413  162.8767 O.3     1  UNL1       -0.4753
     19 C         137.7829  140.5598  163.4219 C.ar    1  UNL1        0.1387
     20 C         138.0726  139.3829  162.5382 C.ar    1  UNL1        0.0392
     21 C         138.8190  138.2016  163.0834 C.ar    1  UNL1        0.0327
     22 C         139.2755  138.1971  164.5122 C.ar    1  UNL1        0.1403
     23 F         140.0219  137.0156  165.0574 F       1  UNL1       -0.2042
     24 C         138.9858  139.3740  165.3959 C.ar    1  UNL1        0.0327
     25 C         138.2394  140.5554  164.8507 C.ar    1  UNL1        0.0392
@<TRIPOS>BOND
     1     3     4    2
     2     4     1    1
     3     1    15    1
     4    15    16    1
     5    16    17    1
     6    17    18    1
     7    18    19    1
     8    19    20   ar
     9    20    21   ar
    10    21    22   ar
    11    22    23    1
    12    22    24   ar
    13    24    25   ar
    14     4     6    1
    15     6     8    1
    16     8     9   ar
    17     9    10   ar
    18    10    11   ar
    19    11    12    1
    20    11    13   ar
    21    13    14   ar
    22    25    19   ar
    23    14     8   ar
    24     3     5    1
    25     1     2    1
    26     6     7    1
@<TRIPOS>MOLECULE
*****
 25 26 0 0 0
SMALL
GASTEIGER

@<TRIPOS>ATOM
      1 N         137.7493  143.5207  162.2085 N.pl3   1  UNL1       -0.2619
      2 H         137.5642  143.9060  161.3216 H       1  UNL1        0.2588
      3 N         136.7281  141.3152  163.1266 N.pl3   1  UNL1       -0.1293
      4 C         137.8143  142.0320  162.3807 C.cat   1  UNL1        0.3840
      5 H         135.9725  141.8218  163.5030 H       1  UNL1        0.3062
      6 N         138.9655  141.2602  161.8072 N.pl3   1  UNL1       -0.2424
      7 H         139.0567  141.1645  160.8316 H       1  UNL1        0.2649
      8 C         139.9777  140.6341  162.7200 C.ar    1  UNL1        0.1168
      9 C         139.6477  139.3645  163.4476 C.ar    1  UNL1        0.0338
     10 C         140.6600  138.7384  164.3605 C.ar    1  UNL1        0.0087
     11 C         142.0022  139.3819  164.5458 C.ar    1  UNL1        0.0303
     12 I         143.0146  138.7558  165.4587 I       1  UNL1       -0.0425
     13 C         142.3322  140.6514  163.8182 C.ar    1  UNL1        0.0087
     14 C         141.3200  141.2775  162.9053 C.ar    1  UNL1        0.0338
     15 C         137.9665  144.4223  163.3874 C.3     1  UNL1        0.1778
     16 C         139.2859  144.4193  164.1009 C.3     1  UNL1        0.0901
     17 C         139.4685  143.5886  165.3365 C.3     1  UNL1        0.2090
     18 O         140.8485  143.2289  165.8013 O.3     1  UNL1       -0.4753
     19 C         141.0351  142.1730  166.8503 C.ar    1  UNL1        0.1387
     20 C         142.3011  142.1293  167.6536 C.ar    1  UNL1        0.0392
     21 C         142.4877  141.0735  168.7025 C.ar    1  UNL1        0.0327
     22 C         141.4084  140.0612  168.9481 C.ar    1  UNL1        0.1403
     23 F         141.5950  139.0053  169.9971 F       1  UNL1       -0.2042
     24 C         140.1424  140.1049  168.1448 C.ar    1  UNL1        0.0327
     25 C         139.9558  141.1607  167.0959 C.ar    1  UNL1        0.0392
@<TRIPOS>BOND
     1     3     4    2
     2     4     1    1
     3     1    15    1
     4    15    16    1
     5    16    17    1
     6    17    18    1
     7    18    19    1
     8    19    20   ar
     9    20    21   ar
    10    21    22   ar
    11    22    23    1
    12    22    24   ar
    13    24    25   ar
    14     4     6    1
    15     6     8    1
    16     8     9   ar
    17     9    10   ar
    18    10    11   ar
    19    11    12    1
    20    11    13   ar
    21    13    14   ar
    22    25    19   ar
    23    14     8   ar
    24     3     5    1
    25     1     2    1
    26     6     7    1
@<TRIPOS>MOLECULE
*****
 25 26 0 0 0
SMALL
GASTEIGER

@<TRIPOS>ATOM
      1 N         138.4883  144.5985  162.1770 N.pl3   1  UNL1       -0.2619
      2 H         138.1824  144.7324  161.2509 H       1  UNL1        0.2588
      3 N         140.0266  146.6858  162.0125 N.pl3   1  UNL1       -0.1293
      4 C         139.6052  145.4357  162.7264 C.cat   1  UNL1        0.3840
      5 H         139.5702  146.9568  161.1834 H       1  UNL1        0.3062
      6 N         140.3006  145.0227  163.9897 N.pl3   1  UNL1       -0.2424
      7 H         139.9459  145.3079  164.8627 H       1  UNL1        0.2649
      8 C         141.5365  144.1753  163.9228 C.ar    1  UNL1        0.1168
      9 C         142.8903  144.8211  163.9358 C.ar    1  UNL1        0.0338
     10 C         144.1262  143.9736  163.8689 C.ar    1  UNL1        0.0087
     11 C         144.0083  142.4805  163.7891 C.ar    1  UNL1        0.0303
     12 I         145.2442  141.6330  163.7223 I       1  UNL1       -0.0425
     13 C         142.6545  141.8347  163.7761 C.ar    1  UNL1        0.0087
     14 C         141.4186  142.6820  163.8430 C.ar    1  UNL1        0.0338
     15 C         137.8376  143.5573  163.0387 C.3     1  UNL1        0.1778
     16 C         137.8999  142.1115  162.6443 C.3     1  UNL1        0.0901
     17 C         137.6894  141.0429  163.6758 C.3     1  UNL1        0.2090
     18 O         138.2038  139.6549  163.4335 O.3     1  UNL1       -0.4753
     19 C         139.4939  139.2133  164.0586 C.ar    1  UNL1        0.1387
     20 C         139.8715  139.7033  165.4251 C.ar    1  UNL1        0.0392
     21 C         141.1616  139.2617  166.0501 C.ar    1  UNL1        0.0327
     22 C         142.0740  138.3302  165.3087 C.ar    1  UNL1        0.1403
     23 F         143.3642  137.8886  165.9338 F       1  UNL1       -0.2042
     24 C         141.6964  137.8402  163.9422 C.ar    1  UNL1        0.0327
     25 C         140.4063  138.2818  163.3172 C.ar    1  UNL1        0.0392
@<TRIPOS>BOND
     1     3     4    2
     2     4     1    1
     3     1    15    1
     4    15    16    1
     5    16    17    1
     6    17    18    1
     7    18    19    1
     8    19    20   ar
     9    20    21   ar
    10    21    22   ar
    11    22    23    1
    12    22    24   ar
    13    24    25   ar
    14     4     6    1
    15     6     8    1
    16     8     9   ar
    17     9    10   ar
    18    10    11   ar
    19    11    12    1
    20    11    13   ar
    21    13    14   ar
    22    25    19   ar
    23    14     8   ar
    24     3     5    1
    25     1     2    1
    26     6     7    1
@<TRIPOS>MOLECULE
*****
 25 26 0 0 0
SMALL
GASTEIGER

@<TRIPOS>ATOM
      1 N         141.1878  145.8033  162.9851 N.pl3   1  UNL1       -0.2619
      2 H         141.3773  146.6548  163.4414 H       1  UNL1        0.2588
      3 N         139.6247  145.7569  160.9104 N.pl3   1  UNL1       -0.1293
      4 C         139.8359  145.5601  162.3823 C.cat   1  UNL1        0.3840
      5 H         140.3733  146.0458  160.3399 H       1  UNL1        0.3062
      6 N         138.6954  145.1200  163.2515 N.pl3   1  UNL1       -0.2424
      7 H         137.9564  145.7408  163.4456 H       1  UNL1        0.2649
      8 C         138.6808  143.7340  163.8249 C.ar    1  UNL1        0.1168
      9 C         139.4937  143.4187  165.0454 C.ar    1  UNL1        0.0338
     10 C         139.4791  142.0327  165.6188 C.ar    1  UNL1        0.0087
     11 C         138.6517  140.9620  164.9716 C.ar    1  UNL1        0.0303
     12 I         138.6371  139.5759  165.5450 I       1  UNL1       -0.0425
     13 C         137.8387  141.2773  163.7511 C.ar    1  UNL1        0.0087
     14 C         137.8533  142.6633  163.1777 C.ar    1  UNL1        0.0338
     15 C         142.2509  144.7492  162.8926 C.3     1  UNL1        0.1778
     16 C         143.6228  145.0179  163.4365 C.3     1  UNL1        0.0901
     17 C         144.0982  144.2959  164.6624 C.3     1  UNL1        0.2090
     18 O         144.9581  143.0744  164.5272 O.3     1  UNL1       -0.4753
     19 C         144.3706  141.7140  164.7601 C.ar    1  UNL1        0.1387
     20 C         143.2393  141.5416  165.7299 C.ar    1  UNL1        0.0392
     21 C         142.6518  140.1813  165.9628 C.ar    1  UNL1        0.0327
     22 C         143.1956  138.9933  165.2259 C.ar    1  UNL1        0.1403
     23 F         142.6080  137.6329  165.4588 F       1  UNL1       -0.2042
     24 C         144.3268  139.1656  164.2561 C.ar    1  UNL1        0.0327
     25 C         144.9143  140.5260  164.0233 C.ar    1  UNL1        0.0392
@<TRIPOS>BOND
     1     3     4    2
     2     4     1    1
     3     1    15    1
     4    15    16    1
     5    16    17    1
     6    17    18    1
     7    18    19    1
     8    19    20   ar
     9    20    21   ar
    10    21    22   ar
    11    22    23    1
    12    22    24   ar
    13    24    25   ar
    14     4     6    1
    15     6     8    1
    16     8     9   ar
    17     9    10   ar
    18    10    11   ar
    19    11    12    1
    20    11    13   ar
    21    13    14   ar
    22    25    19   ar
    23    14     8   ar
    24     3     5    1
    25     1     2    1
    26     6     7    1
