@<TRIPOS>MOLECULE
*****
 28 30 0 0 0
SMALL
GASTEIGER

@<TRIPOS>ATOM
      1 O         137.4299  142.2199  162.9781 O.2     1  UNL1       -0.2701
      2 C         138.4868  142.6613  163.9468 C.2     1  UNL1        0.2459
      3 N         139.1276  144.0089  163.7948 N.am    1  UNL1       -0.3008
      4 H         139.8213  144.2987  164.4306 H       1  UNL1        0.1497
      5 C         138.9027  141.7551  165.0674 C.ar    1  UNL1        0.0563
      6 C         139.9142  142.2208  166.0725 C.ar    1  UNL1        0.0252
      7 C         140.3301  141.3146  167.1931 C.ar    1  UNL1        0.0989
      8 N         139.7346  139.9426  167.3086 N.ar    1  UNL1       -0.2399
      9 C         138.7233  139.4770  166.3035 C.ar    1  UNL1        0.1528
     10 C         138.3073  140.3832  165.1829 C.ar    1  UNL1        0.0276
     11 C         138.1278  138.1050  166.4189 C.3     1  UNL1        0.4348
     12 F         137.5324  136.7331  166.5343 F       1  UNL1       -0.1644
     13 F         139.0621  137.6100  165.3550 F       1  UNL1       -0.1644
     14 F         137.1935  138.6000  167.4829 F       1  UNL1       -0.1644
     15 C         138.7117  144.9152  162.6742 C.3     1  UNL1        0.0931
     16 C         139.7258  145.7953  162.0056 C.3     1  UNL1        0.0615
     17 C         140.7950  145.1886  161.1460 C.3     1  UNL1        0.1656
     18 N         142.2183  145.1724  161.6190 N.pl3   1  UNL1       -0.2201
     19 H         142.7867  145.9669  161.4968 H       1  UNL1        0.2456
     20 C         142.7757  143.9457  162.2781 C.cat   1  UNL1        0.4200
     21 N         144.2214  143.5482  162.3221 N.2     1  UNL1       -0.0679
     22 C         144.3246  142.2579  163.0801 C.2     1  UNL1        0.1887
     23 C         145.4983  141.3955  163.4387 C.2     1  UNL1        0.0395
     24 C         145.2900  140.1332  164.2217 C.2     1  UNL1       -0.0010
     25 C         143.9080  139.7333  164.6461 C.2     1  UNL1       -0.0181
     26 C         142.7343  140.5956  164.2876 C.3     1  UNL1        0.0932
     27 C         142.9426  141.8580  163.5046 C.2     1  UNL1        0.1744
     28 N         141.9854  142.9011  163.0089 N.2     1  UNL1       -0.0718
@<TRIPOS>BOND
     1     1     2    2
     2     2     3   am
     3     3    15    1
     4    15    16    1
     5    16    17    1
     6    17    18    1
     7    18    20    1
     8    20    21    2
     9    21    22    1
    10    22    23    2
    11    23    24    1
    12    24    25    2
    13    25    26    1
    14    26    27    1
    15    27    28    2
    16     2     5    1
    17     5     6   ar
    18     6     7   ar
    19     7     8   ar
    20     8     9   ar
    21     9    11    1
    22    11    12    1
    23    11    13    1
    24    11    14    1
    25     9    10   ar
    26    28    20    1
    27    10     5   ar
    28    27    22    1
    29     3     4    1
    30    18    19    1
@<TRIPOS>MOLECULE
*****
 28 30 0 0 0
SMALL
GASTEIGER

@<TRIPOS>ATOM
      1 O         139.4254  137.9880  165.0585 O.2     1  UNL1       -0.2701
      2 C         140.2476  139.0944  164.4669 C.2     1  UNL1        0.2459
      3 N         140.6563  139.0364  163.0249 N.am    1  UNL1       -0.3008
      4 H         141.1960  139.7626  162.6366 H       1  UNL1        0.1497
      5 C         140.6611  140.2587  165.3175 C.ar    1  UNL1        0.0563
      6 C         139.7553  140.7504  166.4074 C.ar    1  UNL1        0.0252
      7 C         140.1688  141.9147  167.2579 C.ar    1  UNL1        0.0989
      8 N         141.4881  142.5873  167.0186 N.ar    1  UNL1       -0.2399
      9 C         142.3938  142.0955  165.9287 C.ar    1  UNL1        0.1528
     10 C         141.9803  140.9312  165.0782 C.ar    1  UNL1        0.0276
     11 C         143.7131  142.7681  165.6894 C.3     1  UNL1        0.4348
     12 F         145.0323  143.4406  165.4500 F       1  UNL1       -0.1644
     13 F         143.4892  142.6803  164.2088 F       1  UNL1       -0.1644
     14 F         143.9370  142.8559  167.1699 F       1  UNL1       -0.1644
     15 C         140.2428  137.8721  162.1743 C.3     1  UNL1        0.0931
     16 C         139.1423  138.0322  161.1676 C.3     1  UNL1        0.0615
     17 C         137.7593  138.3963  161.6199 C.3     1  UNL1        0.1656
     18 N         137.2261  139.7753  161.3667 N.pl3   1  UNL1       -0.2201
     19 H         136.5160  139.9136  160.6990 H       1  UNL1        0.2456
     20 C         137.7750  140.9437  162.1307 C.cat   1  UNL1        0.4200
     21 N         137.0471  141.7324  163.1786 N.2     1  UNL1       -0.0679
     22 C         137.9704  142.8046  163.6765 C.2     1  UNL1        0.1887
     23 C         137.7964  143.8794  164.7082 C.2     1  UNL1        0.0395
     24 C         138.9210  144.8282  164.9997 C.2     1  UNL1       -0.0010
     25 C         140.2196  144.7021  164.2596 C.2     1  UNL1       -0.0181
     26 C         140.3935  143.6273  163.2279 C.3     1  UNL1        0.0932
     27 C         139.2689  142.6785  162.9364 C.2     1  UNL1        0.1744
     28 N         139.1482  141.5284  161.9810 N.2     1  UNL1       -0.0718
@<TRIPOS>BOND
     1     1     2    2
     2     2     3   am
     3     3    15    1
     4    15    16    1
     5    16    17    1
     6    17    18    1
     7    18    20    1
     8    20    21    2
     9    21    22    1
    10    22    23    2
    11    23    24    1
    12    24    25    2
    13    25    26    1
    14    26    27    1
    15    27    28    2
    16     2     5    1
    17     5     6   ar
    18     6     7   ar
    19     7     8   ar
    20     8     9   ar
    21     9    11    1
    22    11    12    1
    23    11    13    1
    24    11    14    1
    25     9    10   ar
    26    28    20    1
    27    10     5   ar
    28    27    22    1
    29     3     4    1
    30    18    19    1
@<TRIPOS>MOLECULE
*****
 28 30 0 0 0
SMALL
GASTEIGER

@<TRIPOS>ATOM
      1 O         143.7802  138.2067  165.8173 O.2     1  UNL1       -0.2701
      2 C         143.0510  138.8776  164.6911 C.2     1  UNL1        0.2459
      3 N         143.7425  139.9229  163.8671 N.am    1  UNL1       -0.3008
      4 H         143.2639  140.3631  163.1279 H       1  UNL1        0.1497
      5 C         141.6303  138.5030  164.3890 C.ar    1  UNL1        0.0563
      6 C         141.2532  138.0397  163.0131 C.ar    1  UNL1        0.0252
      7 C         139.8324  137.6651  162.7110 C.ar    1  UNL1        0.0989
      8 N         138.7888  137.7539  163.7848 N.ar    1  UNL1       -0.2399
      9 C         139.1660  138.2172  165.1607 C.ar    1  UNL1        0.1528
     10 C         140.5867  138.5918  165.4628 C.ar    1  UNL1        0.0276
     11 C         138.1224  138.3060  166.2346 C.3     1  UNL1        0.4348
     12 F         137.0788  138.3948  167.3084 F       1  UNL1       -0.1644
     13 F         138.3006  139.7945  166.2846 F       1  UNL1       -0.1644
     14 F         137.9442  136.8175  166.1845 F       1  UNL1       -0.1644
     15 C         145.1632  140.2974  164.1692 C.3     1  UNL1        0.0931
     16 C         145.7383  141.5670  163.6145 C.3     1  UNL1        0.0615
     17 C         145.1253  142.8879  163.9740 C.3     1  UNL1        0.1656
     18 N         144.1060  143.5130  163.0682 N.pl3   1  UNL1       -0.2201
     19 H         144.3922  143.9566  162.2372 H       1  UNL1        0.2456
     20 C         142.6509  143.4624  163.4287 C.cat   1  UNL1        0.4200
     21 N         141.7466  142.2748  163.2803 N.2     1  UNL1       -0.0679
     22 C         140.3813  142.6689  163.7607 C.2     1  UNL1        0.1887
     23 C         139.0909  141.9094  163.8502 C.2     1  UNL1        0.0395
     24 C         137.8610  142.5811  164.3850 C.2     1  UNL1       -0.0010
     25 C         137.9214  144.0122  164.8303 C.2     1  UNL1       -0.0181
     26 C         139.2119  144.7716  164.7408 C.3     1  UNL1        0.0932
     27 C         140.4418  144.1000  164.2060 C.2     1  UNL1        0.1744
     28 N         141.8444  144.5904  164.0008 N.2     1  UNL1       -0.0718
@<TRIPOS>BOND
     1     1     2    2
     2     2     3   am
     3     3    15    1
     4    15    16    1
     5    16    17    1
     6    17    18    1
     7    18    20    1
     8    20    21    2
     9    21    22    1
    10    22    23    2
    11    23    24    1
    12    24    25    2
    13    25    26    1
    14    26    27    1
    15    27    28    2
    16     2     5    1
    17     5     6   ar
    18     6     7   ar
    19     7     8   ar
    20     8     9   ar
    21     9    11    1
    22    11    12    1
    23    11    13    1
    24    11    14    1
    25     9    10   ar
    26    28    20    1
    27    10     5   ar
    28    27    22    1
    29     3     4    1
    30    18    19    1
@<TRIPOS>MOLECULE
*****
 28 30 0 0 0
SMALL
GASTEIGER

@<TRIPOS>ATOM
      1 O         142.7278  142.3424  164.0019 O.2     1  UNL1       -0.2701
      2 C         141.6835  142.7766  164.9873 C.2     1  UNL1        0.2459
      3 N         140.8389  143.9830  164.7024 N.am    1  UNL1       -0.3008
      4 H         140.1535  144.2679  165.3492 H       1  UNL1        0.1497
      5 C         141.4839  142.0043  166.2577 C.ar    1  UNL1        0.0563
      6 C         141.9607  140.5854  166.3556 C.ar    1  UNL1        0.0252
      7 C         141.7611  139.8132  167.6260 C.ar    1  UNL1        0.0989
      8 N         141.0846  140.4598  168.7983 N.ar    1  UNL1       -0.2399
      9 C         140.6078  141.8785  168.7003 C.ar    1  UNL1        0.1528
     10 C         140.8074  142.6508  167.4300 C.ar    1  UNL1        0.0276
     11 C         139.9313  142.5251  169.8727 C.3     1  UNL1        0.4348
     12 F         139.2548  143.1716  171.0450 F       1  UNL1       -0.1644
     13 F         139.0278  141.3354  170.0074 F       1  UNL1       -0.1644
     14 F         140.8348  143.7148  169.7380 F       1  UNL1       -0.1644
     15 C         141.0385  144.7553  163.4321 C.3     1  UNL1        0.0931
     16 C         139.9957  144.7095  162.3548 C.3     1  UNL1        0.0615
     17 C         138.5542  144.9455  162.6959 C.3     1  UNL1        0.1656
     18 N         137.5564  143.8357  162.5453 N.pl3   1  UNL1       -0.2201
     19 H         136.7149  143.9930  162.0591 H       1  UNL1        0.2456
     20 C         137.8407  142.4864  163.1356 C.cat   1  UNL1        0.4200
     21 N         137.9492  142.1687  164.5976 N.2     1  UNL1       -0.0679
     22 C         138.2419  140.7038  164.7331 C.2     1  UNL1        0.1887
     23 C         138.4519  139.8291  165.9334 C.2     1  UNL1        0.0395
     24 C         138.7342  138.3667  165.7555 C.2     1  UNL1       -0.0010
     25 C         138.8066  137.7790  164.3773 C.2     1  UNL1       -0.0181
     26 C         138.5967  138.6537  163.1771 C.3     1  UNL1        0.0932
     27 C         138.3143  140.1161  163.3549 C.2     1  UNL1        0.1744
     28 N         138.0663  141.2178  162.3677 N.2     1  UNL1       -0.0718
@<TRIPOS>BOND
     1     1     2    2
     2     2     3   am
     3     3    15    1
     4    15    16    1
     5    16    17    1
     6    17    18    1
     7    18    20    1
     8    20    21    2
     9    21    22    1
    10    22    23    2
    11    23    24    1
    12    24    25    2
    13    25    26    1
    14    26    27    1
    15    27    28    2
    16     2     5    1
    17     5     6   ar
    18     6     7   ar
    19     7     8   ar
    20     8     9   ar
    21     9    11    1
    22    11    12    1
    23    11    13    1
    24    11    14    1
    25     9    10   ar
    26    28    20    1
    27    10     5   ar
    28    27    22    1
    29     3     4    1
    30    18    19    1
@<TRIPOS>MOLECULE
*****
 28 30 0 0 0
SMALL
GASTEIGER

@<TRIPOS>ATOM
      1 O         137.4267  141.5088  162.0614 O.2     1  UNL1       -0.2701
      2 C         138.8696  141.4664  162.4693 C.2     1  UNL1        0.2459
      3 N         139.8279  142.4938  161.9440 N.am    1  UNL1       -0.3008
      4 H         140.7749  142.4660  162.2117 H       1  UNL1        0.1497
      5 C         139.3541  140.3966  163.4024 C.ar    1  UNL1        0.0563
      6 C         140.7782  139.9304  163.3342 C.ar    1  UNL1        0.0252
      7 C         141.2627  138.8606  164.2673 C.ar    1  UNL1        0.0989
      8 N         140.3230  138.2569  165.2687 N.ar    1  UNL1       -0.2399
      9 C         138.8989  138.7230  165.3368 C.ar    1  UNL1        0.1528
     10 C         138.4145  139.7929  164.4037 C.ar    1  UNL1        0.0276
     11 C         137.9593  138.1193  166.3382 C.3     1  UNL1        0.4348
     12 F         137.0196  137.5156  167.3394 F       1  UNL1       -0.1644
     13 F         138.3112  136.7483  165.8418 F       1  UNL1       -0.1644
     14 F         137.6073  139.4903  166.8345 F       1  UNL1       -0.1644
     15 C         139.3435  143.5637  161.0109 C.3     1  UNL1        0.0931
     16 C         140.1249  144.8348  160.8569 C.3     1  UNL1        0.0615
     17 C         140.1044  145.8646  161.9474 C.3     1  UNL1        0.1656
     18 N         141.1928  145.8862  162.9792 N.pl3   1  UNL1       -0.2201
     19 H         141.8231  146.6417  163.0140 H       1  UNL1        0.2456
     20 C         141.3210  144.7568  163.9579 C.cat   1  UNL1        0.4200
     21 N         140.2123  144.1769  164.7853 N.2     1  UNL1       -0.0679
     22 C         140.7864  143.0706  165.6198 C.2     1  UNL1        0.1887
     23 C         140.1656  142.1445  166.6232 C.2     1  UNL1        0.0395
     24 C         141.0084  141.1145  167.3150 C.2     1  UNL1       -0.0010
     25 C         142.4720  141.0106  167.0035 C.2     1  UNL1       -0.0181
     26 C         143.0928  141.9367  166.0001 C.3     1  UNL1        0.0932
     27 C         142.2500  142.9668  165.3083 C.2     1  UNL1        0.1744
     28 N         142.5804  144.0088  164.2812 N.2     1  UNL1       -0.0718
@<TRIPOS>BOND
     1     1     2    2
     2     2     3   am
     3     3    15    1
     4    15    16    1
     5    16    17    1
     6    17    18    1
     7    18    20    1
     8    20    21    2
     9    21    22    1
    10    22    23    2
    11    23    24    1
    12    24    25    2
    13    25    26    1
    14    26    27    1
    15    27    28    2
    16     2     5    1
    17     5     6   ar
    18     6     7   ar
    19     7     8   ar
    20     8     9   ar
    21     9    11    1
    22    11    12    1
    23    11    13    1
    24    11    14    1
    25     9    10   ar
    26    28    20    1
    27    10     5   ar
    28    27    22    1
    29     3     4    1
    30    18    19    1
@<TRIPOS>MOLECULE
*****
 28 30 0 0 0
SMALL
GASTEIGER

@<TRIPOS>ATOM
      1 O         141.2795  142.8363  161.7824 O.2     1  UNL1       -0.2701
      2 C         141.4101  142.3693  163.2019 C.2     1  UNL1        0.2459
      3 N         141.1398  143.3183  164.3315 N.am    1  UNL1       -0.3008
      4 H         141.2255  143.0118  165.2632 H       1  UNL1        0.1497
      5 C         141.8112  140.9532  163.4917 C.ar    1  UNL1        0.0563
      6 C         141.8570  139.9447  162.3822 C.ar    1  UNL1        0.0252
      7 C         142.2580  138.5287  162.6719 C.ar    1  UNL1        0.0989
      8 N         142.6132  138.1211  164.0712 N.ar    1  UNL1       -0.2399
      9 C         142.5673  139.1296  165.1806 C.ar    1  UNL1        0.1528
     10 C         142.1663  140.5456  164.8908 C.ar    1  UNL1        0.0276
     11 C         142.9225  138.7220  166.5798 C.3     1  UNL1        0.4348
     12 F         143.2776  138.3145  167.9790 F       1  UNL1       -0.1644
     13 F         144.2733  138.2738  166.1064 F       1  UNL1       -0.1644
     14 F         141.5716  139.1702  167.0533 F       1  UNL1       -0.1644
     15 C         140.7387  144.7344  164.0418 C.3     1  UNL1        0.0931
     16 C         139.2864  145.1013  163.9620 C.3     1  UNL1        0.0615
     17 C         138.5213  144.8631  162.6940 C.3     1  UNL1        0.1656
     18 N         137.4679  143.7966  162.6427 N.pl3   1  UNL1       -0.2201
     19 H         136.5688  144.0087  162.3023 H       1  UNL1        0.2456
     20 C         137.7843  142.4068  163.1100 C.cat   1  UNL1        0.4200
     21 N         138.0034  141.9833  164.5322 N.2     1  UNL1       -0.0679
     22 C         138.2916  140.5112  164.5383 C.2     1  UNL1        0.1887
     23 C         138.5861  139.5508  165.6522 C.2     1  UNL1        0.0395
     24 C         138.8396  138.1041  165.3477 C.2     1  UNL1       -0.0010
     25 C         138.7987  137.6179  163.9293 C.2     1  UNL1       -0.0181
     26 C         138.5042  138.5783  162.8154 C.3     1  UNL1        0.0932
     27 C         138.2507  140.0250  163.1199 C.2     1  UNL1        0.1744
     28 N         137.9371  141.1965  162.2372 N.2     1  UNL1       -0.0718
@<TRIPOS>BOND
     1     1     2    2
     2     2     3   am
     3     3    15    1
     4    15    16    1
     5    16    17    1
     6    17    18    1
     7    18    20    1
     8    20    21    2
     9    21    22    1
    10    22    23    2
    11    23    24    1
    12    24    25    2
    13    25    26    1
    14    26    27    1
    15    27    28    2
    16     2     5    1
    17     5     6   ar
    18     6     7   ar
    19     7     8   ar
    20     8     9   ar
    21     9    11    1
    22    11    12    1
    23    11    13    1
    24    11    14    1
    25     9    10   ar
    26    28    20    1
    27    10     5   ar
    28    27    22    1
    29     3     4    1
    30    18    19    1
@<TRIPOS>MOLECULE
*****
 28 30 0 0 0
SMALL
GASTEIGER

@<TRIPOS>ATOM
      1 O         144.3072  145.1214  162.7404 O.2     1  UNL1       -0.2701
      2 C         143.2335  144.1344  163.0915 C.2     1  UNL1        0.2459
      3 N         143.5783  142.8924  163.8585 N.am    1  UNL1       -0.3008
      4 H         142.8736  142.2446  164.0889 H       1  UNL1        0.1497
      5 C         141.8151  144.3896  162.6755 C.ar    1  UNL1        0.0563
      6 C         141.4993  144.7103  161.2446 C.ar    1  UNL1        0.0252
      7 C         140.0809  144.9655  160.8286 C.ar    1  UNL1        0.0989
      8 N         138.9783  144.9001  161.8436 N.ar    1  UNL1       -0.2399
      9 C         139.2942  144.5794  163.2744 C.ar    1  UNL1        0.1528
     10 C         140.7126  144.3242  163.6904 C.ar    1  UNL1        0.0276
     11 C         138.1916  144.5139  164.2894 C.3     1  UNL1        0.4348
     12 F         137.0891  144.4484  165.3043 F       1  UNL1       -0.1644
     13 F         139.1640  144.8848  165.3696 F       1  UNL1       -0.1644
     14 F         137.2192  144.1430  163.2092 F       1  UNL1       -0.1644
     15 C         144.9967  142.6372  164.2744 C.3     1  UNL1        0.0931
     16 C         145.7148  141.4161  163.7811 C.3     1  UNL1        0.0615
     17 C         145.2100  140.0511  164.1445 C.3     1  UNL1        0.1656
     18 N         144.5286  139.2038  163.1111 N.pl3   1  UNL1       -0.2201
     19 H         145.0617  138.6235  162.5209 H       1  UNL1        0.2456
     20 C         143.0351  139.2406  162.9770 C.cat   1  UNL1        0.4200
     21 N         142.1637  138.1125  162.5101 N.2     1  UNL1       -0.0679
     22 C         140.7408  138.5866  162.5308 C.2     1  UNL1        0.1887
     23 C         139.4514  137.9079  162.1748 C.2     1  UNL1        0.0395
     24 C         138.1540  138.6503  162.2985 C.2     1  UNL1       -0.0010
     25 C         138.1459  140.0715  162.7783 C.2     1  UNL1       -0.0181
     26 C         139.4353  140.7502  163.1343 C.3     1  UNL1        0.0932
     27 C         140.7327  140.0078  163.0105 C.2     1  UNL1        0.1744
     28 N         142.1507  140.4119  163.2863 N.2     1  UNL1       -0.0718
@<TRIPOS>BOND
     1     1     2    2
     2     2     3   am
     3     3    15    1
     4    15    16    1
     5    16    17    1
     6    17    18    1
     7    18    20    1
     8    20    21    2
     9    21    22    1
    10    22    23    2
    11    23    24    1
    12    24    25    2
    13    25    26    1
    14    26    27    1
    15    27    28    2
    16     2     5    1
    17     5     6   ar
    18     6     7   ar
    19     7     8   ar
    20     8     9   ar
    21     9    11    1
    22    11    12    1
    23    11    13    1
    24    11    14    1
    25     9    10   ar
    26    28    20    1
    27    10     5   ar
    28    27    22    1
    29     3     4    1
    30    18    19    1
@<TRIPOS>MOLECULE
*****
 28 30 0 0 0
SMALL
GASTEIGER

@<TRIPOS>ATOM
      1 O         139.5078  144.0357  166.0088 O.2     1  UNL1       -0.2701
      2 C         140.6875  143.2522  165.5142 C.2     1  UNL1        0.2459
      3 N         141.4435  143.7179  164.3053 N.am    1  UNL1       -0.3008
      4 H         142.2178  143.2036  163.9807 H       1  UNL1        0.1497
      5 C         141.1110  142.0031  166.2285 C.ar    1  UNL1        0.0563
      6 C         142.1236  141.0890  165.6046 C.ar    1  UNL1        0.0252
      7 C         142.5471  139.8398  166.3190 C.ar    1  UNL1        0.0989
      8 N         141.9580  139.5048  167.6572 N.ar    1  UNL1       -0.2399
      9 C         140.9455  140.4188  168.2810 C.ar    1  UNL1        0.1528
     10 C         140.5219  141.6680  167.5667 C.ar    1  UNL1        0.0276
     11 C         140.3564  140.0838  169.6193 C.3     1  UNL1        0.4348
     12 F         139.7673  139.7487  170.9574 F       1  UNL1       -0.1644
     13 F         138.9788  140.1520  169.0299 F       1  UNL1       -0.1644
     14 F         141.7340  140.0156  170.2087 F       1  UNL1       -0.1644
     15 C         141.0200  144.9670  163.5910 C.3     1  UNL1        0.0931
     16 C         140.0886  144.8812  162.4183 C.3     1  UNL1        0.0615
     17 C         138.6072  144.9880  162.6278 C.3     1  UNL1        0.1656
     18 N         137.7322  143.7870  162.4225 N.pl3   1  UNL1       -0.2201
     19 H         136.9097  143.8630  161.8869 H       1  UNL1        0.2456
     20 C         138.1105  142.4703  163.0333 C.cat   1  UNL1        0.4200
     21 N         139.0620  141.4684  162.4494 N.2     1  UNL1       -0.0679
     22 C         139.1432  140.3031  163.3904 C.2     1  UNL1        0.1887
     23 C         139.9214  139.0219  163.3366 C.2     1  UNL1        0.0395
     24 C         139.7984  138.0224  164.4483 C.2     1  UNL1       -0.0010
     25 C         138.8971  138.3041  165.6137 C.2     1  UNL1       -0.0181
     26 C         138.1189  139.5853  165.6676 C.3     1  UNL1        0.0932
     27 C         138.2420  140.5848  164.5559 C.2     1  UNL1        0.1744
     28 N         137.6037  141.9241  164.3352 N.2     1  UNL1       -0.0718
@<TRIPOS>BOND
     1     1     2    2
     2     2     3   am
     3     3    15    1
     4    15    16    1
     5    16    17    1
     6    17    18    1
     7    18    20    1
     8    20    21    2
     9    21    22    1
    10    22    23    2
    11    23    24    1
    12    24    25    2
    13    25    26    1
    14    26    27    1
    15    27    28    2
    16     2     5    1
    17     5     6   ar
    18     6     7   ar
    19     7     8   ar
    20     8     9   ar
    21     9    11    1
    22    11    12    1
    23    11    13    1
    24    11    14    1
    25     9    10   ar
    26    28    20    1
    27    10     5   ar
    28    27    22    1
    29     3     4    1
    30    18    19    1
@<TRIPOS>MOLECULE
*****
 28 30 0 0 0
SMALL
GASTEIGER

@<TRIPOS>ATOM
      1 O         141.4680  143.1191  162.1910 O.2     1  UNL1       -0.2701
      2 C         141.3602  142.4861  163.5467 C.2     1  UNL1        0.2459
      3 N         140.8153  143.2737  164.7010 N.am    1  UNL1       -0.3008
      4 H         140.7446  142.8582  165.5907 H       1  UNL1        0.1497
      5 C         141.7974  141.0654  163.7478 C.ar    1  UNL1        0.0563
      6 C         141.8619  140.4893  165.1314 C.ar    1  UNL1        0.0252
      7 C         142.2991  139.0686  165.3326 C.ar    1  UNL1        0.0989
      8 N         142.6718  138.2240  164.1502 N.ar    1  UNL1       -0.2399
      9 C         142.6073  138.8001  162.7668 C.ar    1  UNL1        0.1528
     10 C         142.1701  140.2208  162.5656 C.ar    1  UNL1        0.0276
     11 C         142.9799  137.9555  161.5845 C.3     1  UNL1        0.4348
     12 F         143.3526  137.1109  160.4022 F       1  UNL1       -0.1644
     13 F         144.2981  138.6653  161.4929 F       1  UNL1       -0.1644
     14 F         141.6618  137.2456  161.6760 F       1  UNL1       -0.1644
     15 C         140.3781  144.6944  164.4998 C.3     1  UNL1        0.0931
     16 C         138.9509  144.9978  164.1515 C.3     1  UNL1        0.0615
     17 C         138.4556  144.7711  162.7539 C.3     1  UNL1        0.1656
     18 N         137.5247  143.6313  162.4637 N.pl3   1  UNL1       -0.2201
     19 H         136.7116  143.7835  161.9298 H       1  UNL1        0.2456
     20 C         137.8325  142.2596  162.9869 C.cat   1  UNL1        0.4200
     21 N         137.7996  141.8369  164.4257 N.2     1  UNL1       -0.0679
     22 C         138.1740  140.3859  164.4913 C.2     1  UNL1        0.1887
     23 C         138.3084  139.4351  165.6436 C.2     1  UNL1        0.0395
     24 C         138.7072  138.0102  165.3976 C.2     1  UNL1       -0.0010
     25 C         138.9716  137.5361  163.9992 C.2     1  UNL1       -0.0181
     26 C         138.8372  138.4869  162.8469 C.3     1  UNL1        0.0932
     27 C         138.4384  139.9118  163.0930 C.2     1  UNL1        0.1744
     28 N         138.2274  141.0699  162.1632 N.2     1  UNL1       -0.0718
@<TRIPOS>BOND
     1     1     2    2
     2     2     3   am
     3     3    15    1
     4    15    16    1
     5    16    17    1
     6    17    18    1
     7    18    20    1
     8    20    21    2
     9    21    22    1
    10    22    23    2
    11    23    24    1
    12    24    25    2
    13    25    26    1
    14    26    27    1
    15    27    28    2
    16     2     5    1
    17     5     6   ar
    18     6     7   ar
    19     7     8   ar
    20     8     9   ar
    21     9    11    1
    22    11    12    1
    23    11    13    1
    24    11    14    1
    25     9    10   ar
    26    28    20    1
    27    10     5   ar
    28    27    22    1
    29     3     4    1
    30    18    19    1
