@<TRIPOS>MOLECULE
*****
 32 35 0 0 0
SMALL
GASTEIGER

@<TRIPOS>ATOM
      1 C         138.8384  139.0559  166.2364 C.3     1  UNL1        0.0026
      2 C         137.7488  138.7676  167.2261 C.3     1  UNL1        0.0026
      3 C         138.9616  139.5416  167.6501 C.3     1  UNL1        0.0297
      4 N         140.5124  138.7138  162.0734 N.pl3   1  UNL1       -0.2782
      5 C         139.9949  140.0320  162.5676 C.3     1  UNL1        0.0936
      6 C         139.4369  140.1461  163.9553 C.3     1  UNL1        0.0216
      7 C         139.3964  138.9418  164.8487 C.3     1  UNL1        0.0035
      8 C         139.9139  137.6236  164.3544 C.3     1  UNL1        0.0216
      9 C         140.4719  137.5096  162.9667 C.3     1  UNL1        0.0936
     10 C         142.1864  138.3717  157.9103 C.ar    1  UNL1        0.0457
     11 C         142.9108  137.7438  159.0640 C.ar    1  UNL1        0.1015
     12 N         142.3528  137.8578  160.4516 N.ar    1  UNL1       -0.2123
     13 C         141.0704  138.5998  160.6857 C.ar    1  UNL1        0.2202
     14 N         140.3460  139.2277  159.5321 N.ar    1  UNL1       -0.2123
     15 C         140.9040  139.1137  158.1444 C.ar    1  UNL1        0.1015
     16 C         142.7444  138.2577  156.5227 C.3     1  UNL1        0.1718
     17 C         143.9722  136.1251  155.6895 C.3     1  UNL1        0.1746
     18 O         144.0175  137.5006  156.2861 O.3     1  UNL1       -0.3462
     19 C         139.7329  140.2690  168.7112 C.3     1  UNL1        0.1425
     20 O         140.8256  139.5649  169.4599 O.3     1  UNL1       -0.3489
     21 C         142.2575  139.7642  169.0602 C.3     1  UNL1        0.1708
     22 C         142.6154  139.9372  167.6138 C.ar    1  UNL1        0.0348
     23 C         142.8824  138.7344  166.7583 C.ar    1  UNL1        0.0017
     24 C         143.2403  138.9073  165.3119 C.ar    1  UNL1        0.0182
     25 C         143.3311  140.2830  164.7211 C.ar    1  UNL1        0.1079
     26 C         143.0640  141.4858  165.5766 C.ar    1  UNL1        0.0477
     27 C         142.7062  141.3129  167.0230 C.ar    1  UNL1        0.1398
     28 F         142.4391  142.5157  167.8785 F       1  UNL1       -0.2044
     29 S         143.6890  140.4559  163.2746 S.O2    1  UNL1        0.0105
     30 C         144.0468  140.6289  161.8283 C.3     1  UNL1        0.1816
     31 O         144.1921  139.0435  163.2302 O.2     1  UNL1       -0.1686
     32 O         143.1859  141.8683  163.3191 O.2     1  UNL1       -0.1686
@<TRIPOS>BOND
     1    17    18    1
     2    18    16    1
     3    16    10    1
     4    10    11   ar
     5    11    12   ar
     6    12    13   ar
     7    13     4    1
     8     4     5    1
     9     5     6    1
    10     6     7    1
    11     1     7    1
    12     1     2    1
    13     2     3    1
    14     3    19    1
    15    19    20    1
    16    20    21    1
    17    21    22    1
    18    22    23   ar
    19    23    24   ar
    20    24    25   ar
    21    25    29    1
    22    29    30    1
    23    29    31    2
    24    29    32    2
    25    25    26   ar
    26    26    27   ar
    27    27    28    1
    28     7     8    1
    29     8     9    1
    30    13    14   ar
    31    14    15   ar
    32    15    10   ar
    33     9     4    1
    34     3     1    1
    35    27    22   ar
@<TRIPOS>MOLECULE
*****
 32 35 0 0 0
SMALL
GASTEIGER

@<TRIPOS>ATOM
      1 C         139.1329  140.3932  168.6924 C.3     1  UNL1        0.0026
      2 C         138.5490  140.0182  170.0222 C.3     1  UNL1        0.0026
      3 C         139.5398  141.1404  169.9278 C.3     1  UNL1        0.0297
      4 N         139.4395  139.7487  164.2494 N.pl3   1  UNL1       -0.2782
      5 C         139.6737  141.1129  164.8273 C.3     1  UNL1        0.0936
      6 C         139.5715  141.3278  166.3083 C.3     1  UNL1        0.0216
      7 C         139.2351  140.1784  167.2114 C.3     1  UNL1        0.0035
      8 C         139.0009  138.8141  166.6336 C.3     1  UNL1        0.0216
      9 C         139.1031  138.5993  165.1525 C.3     1  UNL1        0.0936
     10 C         139.7461  139.1041  159.8064 C.ar    1  UNL1        0.0457
     11 C         140.4702  140.2494  160.4498 C.ar    1  UNL1        0.1015
     12 N         140.3680  140.4642  161.9308 N.ar    1  UNL1       -0.2123
     13 C         139.5417  139.5338  162.7684 C.ar    1  UNL1        0.2202
     14 N         138.8176  138.3886  162.1249 N.ar    1  UNL1       -0.2123
     15 C         138.9198  138.1737  160.6439 C.ar    1  UNL1        0.1015
     16 C         139.8483  138.8893  158.3254 C.3     1  UNL1        0.1718
     17 C         138.0038  140.6265  157.7508 C.3     1  UNL1        0.1746
     18 O         138.7526  139.3694  157.4205 O.3     1  UNL1       -0.3462
     19 C         140.3467  142.2197  170.5865 C.3     1  UNL1        0.1425
     20 O         141.7677  141.9549  170.9875 O.3     1  UNL1       -0.3489
     21 C         142.8812  142.2096  170.0153 C.3     1  UNL1        0.1708
     22 C         142.9155  141.4785  168.7059 C.ar    1  UNL1        0.0348
     23 C         143.1240  142.2370  167.4287 C.ar    1  UNL1        0.0017
     24 C         143.1583  141.5061  166.1193 C.ar    1  UNL1        0.0182
     25 C         142.9841  140.0166  166.0872 C.ar    1  UNL1        0.1079
     26 C         142.7756  139.2581  167.3644 C.ar    1  UNL1        0.0477
     27 C         142.7413  139.9891  168.6737 C.ar    1  UNL1        0.1398
     28 F         142.5329  139.2305  169.9509 F       1  UNL1       -0.2044
     29 S         143.0184  139.2856  164.7778 S.O2    1  UNL1        0.0105
     30 C         143.0526  138.5545  163.4684 C.3     1  UNL1        0.1816
     31 O         143.4059  140.5552  164.0791 O.2     1  UNL1       -0.1686
     32 O         142.6309  138.0161  165.4764 O.2     1  UNL1       -0.1686
@<TRIPOS>BOND
     1    17    18    1
     2    18    16    1
     3    16    10    1
     4    10    11   ar
     5    11    12   ar
     6    12    13   ar
     7    13     4    1
     8     4     5    1
     9     5     6    1
    10     6     7    1
    11     1     7    1
    12     1     2    1
    13     2     3    1
    14     3    19    1
    15    19    20    1
    16    20    21    1
    17    21    22    1
    18    22    23   ar
    19    23    24   ar
    20    24    25   ar
    21    25    29    1
    22    29    30    1
    23    29    31    2
    24    29    32    2
    25    25    26   ar
    26    26    27   ar
    27    27    28    1
    28     7     8    1
    29     8     9    1
    30    13    14   ar
    31    14    15   ar
    32    15    10   ar
    33     9     4    1
    34     3     1    1
    35    27    22   ar
@<TRIPOS>MOLECULE
*****
 32 35 0 0 0
SMALL
GASTEIGER

@<TRIPOS>ATOM
      1 C         138.6429  138.8570  166.1922 C.3     1  UNL1        0.0026
      2 C         137.5703  138.5611  167.1981 C.3     1  UNL1        0.0026
      3 C         138.7651  139.3771  167.5938 C.3     1  UNL1        0.0297
      4 N         140.2891  138.4684  162.0222 N.pl3   1  UNL1       -0.2782
      5 C         139.3765  139.6083  162.3650 C.3     1  UNL1        0.0936
      6 C         138.8278  139.7378  163.7550 C.3     1  UNL1        0.0216
      7 C         139.1917  138.7274  164.8022 C.3     1  UNL1        0.0035
      8 C         140.1043  137.5875  164.4594 C.3     1  UNL1        0.0216
      9 C         140.6530  137.4580  163.0694 C.3     1  UNL1        0.0936
     10 C         141.9354  138.0798  157.8522 C.ar    1  UNL1        0.0457
     11 C         142.8499  137.9534  159.0344 C.ar    1  UNL1        0.1015
     12 N         142.3012  138.0830  160.4244 N.ar    1  UNL1       -0.2123
     13 C         140.8379  138.3389  160.6322 C.ar    1  UNL1        0.2202
     14 N         139.9233  138.4652  159.4500 N.ar    1  UNL1       -0.2123
     15 C         140.4721  138.3357  158.0600 C.ar    1  UNL1        0.1015
     16 C         142.4841  137.9503  156.4622 C.3     1  UNL1        0.1718
     17 C         144.1170  136.1809  155.4861 C.3     1  UNL1        0.1746
     18 O         143.8822  137.4494  156.2515 O.3     1  UNL1       -0.3462
     19 C         139.5254  140.1486  168.6314 C.3     1  UNL1        0.1425
     20 O         140.9184  140.6237  168.3416 O.3     1  UNL1       -0.3489
     21 C         141.8839  139.7253  167.6272 C.3     1  UNL1        0.1708
     22 C         142.3262  140.0572  166.2328 C.ar    1  UNL1        0.0348
     23 C         141.7703  141.2643  165.5370 C.ar    1  UNL1        0.0017
     24 C         142.2125  141.5963  164.1427 C.ar    1  UNL1        0.0182
     25 C         143.2106  140.7212  163.4441 C.ar    1  UNL1        0.1079
     26 C         143.7664  139.5141  164.1398 C.ar    1  UNL1        0.0477
     27 C         143.3242  139.1822  165.5342 C.ar    1  UNL1        0.1398
     28 F         143.8801  137.9751  166.2299 F       1  UNL1       -0.2044
     29 S         143.6529  141.0532  162.0497 S.O2    1  UNL1        0.0105
     30 C         144.0952  141.3851  160.6554 C.3     1  UNL1        0.1816
     31 O         142.2450  141.4279  161.6924 O.2     1  UNL1       -0.1686
     32 O         145.0606  140.6784  162.4070 O.2     1  UNL1       -0.1686
@<TRIPOS>BOND
     1    17    18    1
     2    18    16    1
     3    16    10    1
     4    10    11   ar
     5    11    12   ar
     6    12    13   ar
     7    13     4    1
     8     4     5    1
     9     5     6    1
    10     6     7    1
    11     1     7    1
    12     1     2    1
    13     2     3    1
    14     3    19    1
    15    19    20    1
    16    20    21    1
    17    21    22    1
    18    22    23   ar
    19    23    24   ar
    20    24    25   ar
    21    25    29    1
    22    29    30    1
    23    29    31    2
    24    29    32    2
    25    25    26   ar
    26    26    27   ar
    27    27    28    1
    28     7     8    1
    29     8     9    1
    30    13    14   ar
    31    14    15   ar
    32    15    10   ar
    33     9     4    1
    34     3     1    1
    35    27    22   ar
@<TRIPOS>MOLECULE
*****
 32 35 0 0 0
SMALL
GASTEIGER

@<TRIPOS>ATOM
      1 C         139.5059  140.2024  168.4447 C.3     1  UNL1        0.0026
      2 C         138.8652  140.2880  169.7982 C.3     1  UNL1        0.0026
      3 C         140.3505  140.1143  169.6812 C.3     1  UNL1        0.0297
      4 N         139.1530  140.2065  163.9586 N.pl3   1  UNL1       -0.2782
      5 C         138.8821  138.9496  164.7310 C.3     1  UNL1        0.0936
      6 C         138.9997  138.9482  166.2264 C.3     1  UNL1        0.0216
      7 C         139.3883  140.2038  166.9493 C.3     1  UNL1        0.0035
      8 C         139.6592  141.4607  166.1769 C.3     1  UNL1        0.0216
      9 C         139.5415  141.4620  164.6815 C.3     1  UNL1        0.0936
     10 C         138.8000  140.2107  159.4724 C.ar    1  UNL1        0.0457
     11 C         140.1150  140.5257  160.1216 C.ar    1  UNL1        0.1015
     12 N         140.2327  140.5243  161.6170 N.ar    1  UNL1       -0.2123
     13 C         139.0353  140.2079  162.4632 C.ar    1  UNL1        0.2202
     14 N         137.7203  139.8929  161.8141 N.ar    1  UNL1       -0.2123
     15 C         137.6026  139.8943  160.3187 C.ar    1  UNL1        0.1015
     16 C         138.6823  140.2121  157.9771 C.3     1  UNL1        0.1718
     17 C         137.2054  140.6465  155.8843 C.3     1  UNL1        0.1746
     18 O         137.3298  140.2713  157.3312 O.3     1  UNL1       -0.3462
     19 C         141.6956  139.9632  170.3275 C.3     1  UNL1        0.1425
     20 O         142.9408  140.0408  169.4948 O.3     1  UNL1       -0.3489
     21 C         142.9829  140.9333  168.2899 C.3     1  UNL1        0.1708
     22 C         142.9930  140.3358  166.9140 C.ar    1  UNL1        0.0348
     23 C         142.8023  138.8586  166.7364 C.ar    1  UNL1        0.0017
     24 C         142.8124  138.2612  165.3606 C.ar    1  UNL1        0.0182
     25 C         143.0131  139.1409  164.1624 C.ar    1  UNL1        0.1079
     26 C         143.2037  140.6181  164.3400 C.ar    1  UNL1        0.0477
     27 C         143.1937  141.2156  165.7158 C.ar    1  UNL1        0.1398
     28 F         143.3843  142.6928  165.8935 F       1  UNL1       -0.2044
     29 S         143.0232  138.5435  162.7865 S.O2    1  UNL1        0.0105
     30 C         143.0332  137.9460  161.4107 C.3     1  UNL1        0.1816
     31 O         144.1991  139.4009  162.4228 O.2     1  UNL1       -0.1686
     32 O         141.8473  137.6861  163.1502 O.2     1  UNL1       -0.1686
@<TRIPOS>BOND
     1    17    18    1
     2    18    16    1
     3    16    10    1
     4    10    11   ar
     5    11    12   ar
     6    12    13   ar
     7    13     4    1
     8     4     5    1
     9     5     6    1
    10     6     7    1
    11     1     7    1
    12     1     2    1
    13     2     3    1
    14     3    19    1
    15    19    20    1
    16    20    21    1
    17    21    22    1
    18    22    23   ar
    19    23    24   ar
    20    24    25   ar
    21    25    29    1
    22    29    30    1
    23    29    31    2
    24    29    32    2
    25    25    26   ar
    26    26    27   ar
    27    27    28    1
    28     7     8    1
    29     8     9    1
    30    13    14   ar
    31    14    15   ar
    32    15    10   ar
    33     9     4    1
    34     3     1    1
    35    27    22   ar
@<TRIPOS>MOLECULE
*****
 32 35 0 0 0
SMALL
GASTEIGER

@<TRIPOS>ATOM
      1 C         139.6253  140.2865  168.2263 C.3     1  UNL1        0.0026
      2 C         139.1155  140.4391  169.6287 C.3     1  UNL1        0.0026
      3 C         140.5192  139.9682  169.3880 C.3     1  UNL1        0.0297
      4 N         138.9600  140.5734  163.7850 N.pl3   1  UNL1       -0.2782
      5 C         138.8850  139.2412  164.4701 C.3     1  UNL1        0.0936
      6 C         139.1067  139.1455  165.9505 C.3     1  UNL1        0.0216
      7 C         139.4035  140.3821  166.7458 C.3     1  UNL1        0.0035
      8 C         139.4786  141.7144  166.0608 C.3     1  UNL1        0.0216
      9 C         139.2568  141.8100  164.5803 C.3     1  UNL1        0.0936
     10 C         138.2947  140.8604  159.3437 C.ar    1  UNL1        0.0457
     11 C         138.4164  142.1089  160.1660 C.ar    1  UNL1        0.1015
     12 N         138.6381  142.0133  161.6465 N.ar    1  UNL1       -0.2123
     13 C         138.7382  140.6691  162.3045 C.ar    1  UNL1        0.2202
     14 N         138.6166  139.4205  161.4822 N.ar    1  UNL1       -0.2123
     15 C         138.3948  139.5162  160.0018 C.ar    1  UNL1        0.1015
     16 C         138.0729  140.9560  157.8633 C.3     1  UNL1        0.1718
     17 C         136.1266  141.2604  156.1695 C.3     1  UNL1        0.1746
     18 O         136.7841  140.4751  157.2653 O.3     1  UNL1       -0.3462
     19 C         141.8457  139.5126  169.9197 C.3     1  UNL1        0.1425
     20 O         143.0479  139.4964  169.0227 O.3     1  UNL1       -0.3489
     21 C         142.9195  139.0232  167.6051 C.3     1  UNL1        0.1708
     22 C         142.8976  140.0171  166.4818 C.ar    1  UNL1        0.0348
     23 C         143.0896  141.4769  166.7681 C.ar    1  UNL1        0.0017
     24 C         143.0676  142.4707  165.6448 C.ar    1  UNL1        0.0182
     25 C         142.8536  142.0047  164.2352 C.ar    1  UNL1        0.1079
     26 C         142.6616  140.5449  163.9489 C.ar    1  UNL1        0.0477
     27 C         142.6836  139.5511  165.0722 C.ar    1  UNL1        0.1398
     28 F         142.4916  138.0912  164.7859 F       1  UNL1       -0.2044
     29 S         142.8317  142.9986  163.1119 S.O2    1  UNL1        0.0105
     30 C         142.8097  143.9923  161.9886 C.3     1  UNL1        0.1816
     31 O         143.3770  144.0505  164.0318 O.2     1  UNL1       -0.1686
     32 O         142.2863  141.9467  162.1920 O.2     1  UNL1       -0.1686
@<TRIPOS>BOND
     1    17    18    1
     2    18    16    1
     3    16    10    1
     4    10    11   ar
     5    11    12   ar
     6    12    13   ar
     7    13     4    1
     8     4     5    1
     9     5     6    1
    10     6     7    1
    11     1     7    1
    12     1     2    1
    13     2     3    1
    14     3    19    1
    15    19    20    1
    16    20    21    1
    17    21    22    1
    18    22    23   ar
    19    23    24   ar
    20    24    25   ar
    21    25    29    1
    22    29    30    1
    23    29    31    2
    24    29    32    2
    25    25    26   ar
    26    26    27   ar
    27    27    28    1
    28     7     8    1
    29     8     9    1
    30    13    14   ar
    31    14    15   ar
    32    15    10   ar
    33     9     4    1
    34     3     1    1
    35    27    22   ar
@<TRIPOS>MOLECULE
*****
 32 35 0 0 0
SMALL
GASTEIGER

@<TRIPOS>ATOM
      1 C         138.2393  139.3250  165.9067 C.3     1  UNL1        0.0026
      2 C         137.7221  138.4120  166.9786 C.3     1  UNL1        0.0026
      3 C         138.7588  139.4445  167.3088 C.3     1  UNL1        0.0297
      4 N         138.2352  140.6994  161.6218 N.pl3   1  UNL1       -0.2782
      5 C         137.5986  141.5479  162.6822 C.3     1  UNL1        0.0936
      6 C         137.5999  141.0898  164.1105 C.3     1  UNL1        0.0216
      7 C         138.2379  139.7831  164.4784 C.3     1  UNL1        0.0035
      8 C         138.8746  138.9345  163.4180 C.3     1  UNL1        0.0216
      9 C         138.8733  139.3927  161.9897 C.3     1  UNL1        0.0936
     10 C         138.2312  142.0738  157.3368 C.ar    1  UNL1        0.0457
     11 C         138.7401  142.9831  158.4156 C.ar    1  UNL1        0.1015
     12 N         138.7415  142.5250  159.8439 N.ar    1  UNL1       -0.2123
     13 C         138.2339  141.1575  160.1934 C.ar    1  UNL1        0.2202
     14 N         137.7250  140.2481  159.1146 N.ar    1  UNL1       -0.2123
     15 C         137.7236  140.7062  157.6863 C.ar    1  UNL1        0.1015
     16 C         138.2298  142.5319  155.9085 C.3     1  UNL1        0.1718
     17 C         137.1815  144.0365  154.0680 C.3     1  UNL1        0.1746
     18 O         137.4623  143.7591  155.5152 O.3     1  UNL1       -0.3462
     19 C         139.6573  140.1096  168.3089 C.3     1  UNL1        0.1425
     20 O         140.7414  141.0362  167.8437 O.3     1  UNL1       -0.3489
     21 C         141.2926  140.9080  166.4546 C.3     1  UNL1        0.1708
     22 C         140.9657  141.9432  165.4194 C.ar    1  UNL1        0.0348
     23 C         140.2296  143.1899  165.8118 C.ar    1  UNL1        0.0017
     24 C         139.9026  144.2250  164.7766 C.ar    1  UNL1        0.0182
     25 C         140.3117  144.0134  163.3491 C.ar    1  UNL1        0.1079
     26 C         141.0478  142.7668  162.9567 C.ar    1  UNL1        0.0477
     27 C         141.3748  141.7316  163.9919 C.ar    1  UNL1        0.1398
     28 F         142.1108  140.4850  163.5995 F       1  UNL1       -0.2044
     29 S         139.9847  145.0486  162.3139 S.O2    1  UNL1        0.0105
     30 C         139.6577  146.0837  161.2788 C.3     1  UNL1        0.1816
     31 O         141.4308  145.1117  161.9203 O.2     1  UNL1       -0.1686
     32 O         138.5387  144.9855  162.7076 O.2     1  UNL1       -0.1686
@<TRIPOS>BOND
     1    17    18    1
     2    18    16    1
     3    16    10    1
     4    10    11   ar
     5    11    12   ar
     6    12    13   ar
     7    13     4    1
     8     4     5    1
     9     5     6    1
    10     6     7    1
    11     1     7    1
    12     1     2    1
    13     2     3    1
    14     3    19    1
    15    19    20    1
    16    20    21    1
    17    21    22    1
    18    22    23   ar
    19    23    24   ar
    20    24    25   ar
    21    25    29    1
    22    29    30    1
    23    29    31    2
    24    29    32    2
    25    25    26   ar
    26    26    27   ar
    27    27    28    1
    28     7     8    1
    29     8     9    1
    30    13    14   ar
    31    14    15   ar
    32    15    10   ar
    33     9     4    1
    34     3     1    1
    35    27    22   ar
@<TRIPOS>MOLECULE
*****
 32 35 0 0 0
SMALL
GASTEIGER

@<TRIPOS>ATOM
      1 C         142.2460  139.1088  168.6008 C.3     1  UNL1        0.0026
      2 C         142.7309  138.5914  169.9226 C.3     1  UNL1        0.0026
      3 C         141.5920  139.5663  169.8708 C.3     1  UNL1        0.0297
      4 N         142.5388  139.2127  164.1116 N.pl3   1  UNL1       -0.2782
      5 C         143.7705  138.9912  164.9386 C.3     1  UNL1        0.0936
      6 C         143.6728  138.9566  166.4350 C.3     1  UNL1        0.0216
      7 C         142.3436  139.1434  167.1044 C.3     1  UNL1        0.0035
      8 C         141.1120  139.3649  166.2774 C.3     1  UNL1        0.0216
      9 C         141.2096  139.3996  164.7810 C.3     1  UNL1        0.0936
     10 C         142.8317  139.3165  159.6223 C.ar    1  UNL1        0.0457
     11 C         144.0593  139.0711  160.4485 C.ar    1  UNL1        0.1015
     12 N         143.9617  139.0365  161.9449 N.ar    1  UNL1       -0.2123
     13 C         142.6365  139.2473  162.6151 C.ar    1  UNL1        0.2202
     14 N         141.4088  139.4927  161.7889 N.ar    1  UNL1       -0.2123
     15 C         141.5065  139.5273  160.2925 C.ar    1  UNL1        0.1015
     16 C         142.9293  139.3512  158.1259 C.3     1  UNL1        0.1718
     17 C         142.7054  136.8271  157.5525 C.3     1  UNL1        0.1746
     18 O         143.4058  138.1419  157.3772 O.3     1  UNL1       -0.3462
     19 C         140.5569  140.3931  170.5742 C.3     1  UNL1        0.1425
     20 O         139.8079  141.4544  169.8239 O.3     1  UNL1       -0.3489
     21 C         140.5189  142.6938  169.3678 C.3     1  UNL1        0.1708
     22 C         141.2033  142.7177  168.0331 C.ar    1  UNL1        0.0348
     23 C         140.3995  142.9113  166.7815 C.ar    1  UNL1        0.0017
     24 C         141.0838  142.9352  165.4470 C.ar    1  UNL1        0.0182
     25 C         142.5718  142.7655  165.3640 C.ar    1  UNL1        0.1079
     26 C         143.3756  142.5719  166.6156 C.ar    1  UNL1        0.0477
     27 C         142.6913  142.5480  167.9501 C.ar    1  UNL1        0.1398
     28 F         143.4950  142.3544  169.2017 F       1  UNL1       -0.2044
     29 S         143.2562  142.7894  164.0293 S.O2    1  UNL1        0.0105
     30 C         143.9404  142.8133  162.6948 C.3     1  UNL1        0.1816
     31 O         144.5827  142.6100  164.7063 O.2     1  UNL1       -0.1686
     32 O         141.9297  142.9688  163.3524 O.2     1  UNL1       -0.1686
@<TRIPOS>BOND
     1    17    18    1
     2    18    16    1
     3    16    10    1
     4    10    11   ar
     5    11    12   ar
     6    12    13   ar
     7    13     4    1
     8     4     5    1
     9     5     6    1
    10     6     7    1
    11     1     7    1
    12     1     2    1
    13     2     3    1
    14     3    19    1
    15    19    20    1
    16    20    21    1
    17    21    22    1
    18    22    23   ar
    19    23    24   ar
    20    24    25   ar
    21    25    29    1
    22    29    30    1
    23    29    31    2
    24    29    32    2
    25    25    26   ar
    26    26    27   ar
    27    27    28    1
    28     7     8    1
    29     8     9    1
    30    13    14   ar
    31    14    15   ar
    32    15    10   ar
    33     9     4    1
    34     3     1    1
    35    27    22   ar
@<TRIPOS>MOLECULE
*****
 32 35 0 0 0
SMALL
GASTEIGER

@<TRIPOS>ATOM
      1 C         139.1729  140.0205  166.4054 C.3     1  UNL1        0.0026
      2 C         138.3403  138.9644  167.0697 C.3     1  UNL1        0.0026
      3 C         139.2564  139.8233  167.8900 C.3     1  UNL1        0.0297
      4 N         140.4706  142.1911  162.6832 N.pl3   1  UNL1       -0.2782
      5 C         140.4590  140.6914  162.7114 C.3     1  UNL1        0.0936
      6 C         140.0264  139.9679  163.9521 C.3     1  UNL1        0.0216
      7 C         139.6055  140.7440  165.1646 C.3     1  UNL1        0.0035
      8 C         139.6171  142.2437  165.1365 C.3     1  UNL1        0.0216
      9 C         140.0497  142.9672  163.8958 C.3     1  UNL1        0.0936
     10 C         141.7683  144.3617  158.9610 C.ar    1  UNL1        0.0457
     11 C         141.2621  145.1351  160.1423 C.ar    1  UNL1        0.1015
     12 N         140.8295  144.4116  161.3830 N.ar    1  UNL1       -0.2123
     13 C         140.9032  142.9146  161.4425 C.ar    1  UNL1        0.2202
     14 N         141.4094  142.1411  160.2612 N.ar    1  UNL1       -0.2123
     15 C         141.8420  142.8647  159.0205 C.ar    1  UNL1        0.1015
     16 C         142.2009  145.0852  157.7203 C.3     1  UNL1        0.1718
     17 C         139.9060  145.7449  156.6964 C.3     1  UNL1        0.1746
     18 O         141.3026  146.1142  157.1005 O.3     1  UNL1       -0.3462
     19 C         139.8335  140.2054  169.2207 C.3     1  UNL1        0.1425
     20 O         141.3180  140.1681  169.4331 O.3     1  UNL1       -0.3489
     21 C         142.2021  139.4866  168.4311 C.3     1  UNL1        0.1708
     22 C         142.6752  140.2323  167.2186 C.ar    1  UNL1        0.0348
     23 C         142.6679  141.7322  167.2103 C.ar    1  UNL1        0.0017
     24 C         143.1410  142.4779  165.9978 C.ar    1  UNL1        0.0182
     25 C         143.6214  141.7236  164.7936 C.ar    1  UNL1        0.1079
     26 C         143.6288  140.2236  164.8019 C.ar    1  UNL1        0.0477
     27 C         143.1557  139.4780  166.0144 C.ar    1  UNL1        0.1398
     28 F         143.1630  137.9780  166.0226 F       1  UNL1       -0.2044
     29 S         144.0946  142.4692  163.5811 S.O2    1  UNL1        0.0105
     30 C         144.5677  143.2148  162.3686 C.3     1  UNL1        0.1816
     31 O         144.2117  143.7223  164.3973 O.2     1  UNL1       -0.1686
     32 O         143.9774  141.2162  162.7649 O.2     1  UNL1       -0.1686
@<TRIPOS>BOND
     1    17    18    1
     2    18    16    1
     3    16    10    1
     4    10    11   ar
     5    11    12   ar
     6    12    13   ar
     7    13     4    1
     8     4     5    1
     9     5     6    1
    10     6     7    1
    11     1     7    1
    12     1     2    1
    13     2     3    1
    14     3    19    1
    15    19    20    1
    16    20    21    1
    17    21    22    1
    18    22    23   ar
    19    23    24   ar
    20    24    25   ar
    21    25    29    1
    22    29    30    1
    23    29    31    2
    24    29    32    2
    25    25    26   ar
    26    26    27   ar
    27    27    28    1
    28     7     8    1
    29     8     9    1
    30    13    14   ar
    31    14    15   ar
    32    15    10   ar
    33     9     4    1
    34     3     1    1
    35    27    22   ar
@<TRIPOS>MOLECULE
*****
 32 35 0 0 0
SMALL
GASTEIGER

@<TRIPOS>ATOM
      1 C         142.8893  139.4949  165.7337 C.3     1  UNL1        0.0026
      2 C         143.5554  138.2502  166.2405 C.3     1  UNL1        0.0026
      3 C         142.9005  139.1956  167.2035 C.3     1  UNL1        0.0297
      4 N         141.7161  142.1694  162.3102 N.pl3   1  UNL1       -0.2782
      5 C         141.1393  140.7887  162.4151 C.3     1  UNL1        0.0936
      6 C         141.5304  139.8972  163.5563 C.3     1  UNL1        0.0216
      7 C         142.4982  140.3864  164.5925 C.3     1  UNL1        0.0035
      8 C         143.0750  141.7670  164.4876 C.3     1  UNL1        0.0216
      9 C         142.6840  142.6585  163.3464 C.3     1  UNL1        0.0936
     10 C         140.5428  144.8438  158.8866 C.ar    1  UNL1        0.0457
     11 C         139.9525  143.4697  159.0012 C.ar    1  UNL1        0.1015
     12 N         140.3436  142.5782  160.1424 N.ar    1  UNL1       -0.2123
     13 C         141.3250  143.0609  161.1690 C.ar    1  UNL1        0.2202
     14 N         141.9153  144.4350  161.0543 N.ar    1  UNL1       -0.2123
     15 C         141.5242  145.3265  159.9131 C.ar    1  UNL1        0.1015
     16 C         140.1518  145.7353  157.7454 C.3     1  UNL1        0.1718
     17 C         142.1530  145.0241  156.2490 C.3     1  UNL1        0.1746
     18 O         141.1452  146.0533  156.6675 O.3     1  UNL1       -0.3462
     19 C         142.5290  139.5686  168.6080 C.3     1  UNL1        0.1425
     20 O         141.1646  140.1184  168.9020 O.3     1  UNL1       -0.3489
     21 C         140.0319  139.8615  167.9528 C.3     1  UNL1        0.1708
     22 C         139.6998  140.8683  166.8916 C.ar    1  UNL1        0.0348
     23 C         140.3309  142.2286  166.9244 C.ar    1  UNL1        0.0017
     24 C         139.9988  143.2353  165.8632 C.ar    1  UNL1        0.0182
     25 C         139.0355  142.8817  164.7692 C.ar    1  UNL1        0.1079
     26 C         138.4044  141.5213  164.7363 C.ar    1  UNL1        0.0477
     27 C         138.7365  140.5146  165.7975 C.ar    1  UNL1        0.1398
     28 F         138.1054  139.1542  165.7646 F       1  UNL1       -0.2044
     29 S         138.7033  143.8884  163.7079 S.O2    1  UNL1        0.0105
     30 C         138.3712  144.8950  162.6466 C.3     1  UNL1        0.1816
     31 O         139.8598  144.7356  164.1496 O.2     1  UNL1       -0.1686
     32 O         137.5470  143.0412  163.2662 O.2     1  UNL1       -0.1686
@<TRIPOS>BOND
     1    17    18    1
     2    18    16    1
     3    16    10    1
     4    10    11   ar
     5    11    12   ar
     6    12    13   ar
     7    13     4    1
     8     4     5    1
     9     5     6    1
    10     6     7    1
    11     1     7    1
    12     1     2    1
    13     2     3    1
    14     3    19    1
    15    19    20    1
    16    20    21    1
    17    21    22    1
    18    22    23   ar
    19    23    24   ar
    20    24    25   ar
    21    25    29    1
    22    29    30    1
    23    29    31    2
    24    29    32    2
    25    25    26   ar
    26    26    27   ar
    27    27    28    1
    28     7     8    1
    29     8     9    1
    30    13    14   ar
    31    14    15   ar
    32    15    10   ar
    33     9     4    1
    34     3     1    1
    35    27    22   ar
