@<TRIPOS>MOLECULE
*****
 25 28 0 0 0
SMALL
GASTEIGER

@<TRIPOS>ATOM
      1 O         140.4276  143.6256  165.6516 O.2     1  UNL1       -0.2523
      2 C         141.0643  143.9692  164.3377 C.2     1  UNL1        0.3076
      3 N         140.3683  144.5640  163.1495 N.am    1  UNL1       -0.2609
      4 C         141.3827  144.7408  162.0586 C.3     1  UNL1        0.1165
      5 C         142.7056  144.2552  162.5727 C.3     1  UNL1        0.1168
      6 N         142.5088  143.7784  163.9813 N.am    1  UNL1       -0.2581
      7 C         138.9134  144.9196  163.0666 C.3     1  UNL1        0.1123
      8 C         137.8971  143.8565  162.7717 C.3     1  UNL1        0.0944
      9 N         138.1178  142.4535  163.2541 N.3     1  UNL1       -0.2637
     10 C         138.5792  141.2962  162.4188 C.3     1  UNL1        0.0992
     11 C         138.6624  140.0888  163.3050 C.ar    1  UNL1       -0.0088
     12 C         139.0585  138.6682  163.0312 C.ar    1  UNL1       -0.0032
     13 C         139.0446  137.6587  164.1406 C.ar    1  UNL1       -0.0003
     14 C         138.6347  138.0698  165.5237 C.ar    1  UNL1       -0.0003
     15 C         138.2386  139.4904  165.7974 C.ar    1  UNL1       -0.0032
     16 C         138.2525  140.4999  164.6881 C.ar    1  UNL1       -0.0088
     17 C         137.9159  141.9613  164.6566 C.3     1  UNL1        0.0992
     18 C         143.5701  143.2105  164.8762 C.3     1  UNL1        0.1226
     19 C         143.7090  141.7244  165.0254 C.ar    1  UNL1        0.0083
     20 C         142.7414  140.9630  165.8820 C.ar    1  UNL1       -0.0018
     21 C         142.8803  139.4769  166.0313 C.ar    1  UNL1       -0.0002
     22 C         143.9869  138.7523  165.3240 C.ar    1  UNL1        0.0008
     23 C         144.9546  139.5137  164.4674 C.ar    1  UNL1        0.0111
     24 C         144.8157  140.9998  164.3181 C.ar    1  UNL1        0.0553
     25 CL        145.7834  141.7613  163.4615 Cl      1  UNL1       -0.0825
@<TRIPOS>BOND
     1     1     2    2
     2     2     3   am
     3     3     7    1
     4     7     8    1
     5     8     9    1
     6     9    10    1
     7    10    11    1
     8    11    12   ar
     9    12    13   ar
    10    13    14   ar
    11    14    15   ar
    12    15    16   ar
    13    16    17    1
    14     3     4    1
    15     4     5    1
    16     5     6    1
    17     6    18    1
    18    18    19    1
    19    19    20   ar
    20    20    21   ar
    21    21    22   ar
    22    22    23   ar
    23    23    24   ar
    24    24    25    1
    25     6     2   am
    26    24    19   ar
    27    17     9    1
    28    16    11   ar
@<TRIPOS>MOLECULE
*****
 25 28 0 0 0
SMALL
GASTEIGER

@<TRIPOS>ATOM
      1 O         138.3143  143.0525  160.7388 O.2     1  UNL1       -0.2523
      2 C         138.3868  143.4949  162.1702 C.2     1  UNL1        0.3076
      3 N         138.9967  144.7715  162.6686 N.am    1  UNL1       -0.2609
      4 C         138.8488  144.8041  164.1611 C.3     1  UNL1        0.1165
      5 C         138.1476  143.5476  164.5849 C.3     1  UNL1        0.1168
      6 N         137.8620  142.7385  163.3545 N.am    1  UNL1       -0.2581
      7 C         139.6412  145.8297  161.8232 C.3     1  UNL1        0.1123
      8 C         140.9028  145.5239  161.0717 C.3     1  UNL1        0.0944
      9 N         141.9273  144.6051  161.6684 N.3     1  UNL1       -0.2637
     10 C         142.4754  143.3627  161.0310 C.3     1  UNL1        0.0992
     11 C         143.4704  142.7571  161.9760 C.ar    1  UNL1       -0.0088
     12 C         144.3242  141.5273  161.8820 C.ar    1  UNL1       -0.0032
     13 C         145.2449  141.1656  163.0096 C.ar    1  UNL1       -0.0003
     14 C         145.3119  142.0336  164.2311 C.ar    1  UNL1       -0.0003
     15 C         144.4581  143.2633  164.3250 C.ar    1  UNL1       -0.0032
     16 C         143.5374  143.6251  163.1975 C.ar    1  UNL1       -0.0088
     17 C         142.5837  144.7672  163.0074 C.3     1  UNL1        0.0992
     18 C         137.1727  141.4070  163.3153 C.3     1  UNL1        0.1226
     19 C         137.8941  140.1751  163.7756 C.ar    1  UNL1        0.0083
     20 C         138.2474  140.0099  165.2239 C.ar    1  UNL1       -0.0018
     21 C         138.9689  138.7781  165.6843 C.ar    1  UNL1       -0.0002
     22 C         139.3371  137.7113  164.6962 C.ar    1  UNL1        0.0008
     23 C         138.9839  137.8764  163.2477 C.ar    1  UNL1        0.0111
     24 C         138.2624  139.1083  162.7874 C.ar    1  UNL1        0.0553
     25 CL        137.9091  139.2735  161.3390 Cl      1  UNL1       -0.0825
@<TRIPOS>BOND
     1     1     2    2
     2     2     3   am
     3     3     7    1
     4     7     8    1
     5     8     9    1
     6     9    10    1
     7    10    11    1
     8    11    12   ar
     9    12    13   ar
    10    13    14   ar
    11    14    15   ar
    12    15    16   ar
    13    16    17    1
    14     3     4    1
    15     4     5    1
    16     5     6    1
    17     6    18    1
    18    18    19    1
    19    19    20   ar
    20    20    21   ar
    21    21    22   ar
    22    22    23   ar
    23    23    24   ar
    24    24    25    1
    25     6     2   am
    26    24    19   ar
    27    17     9    1
    28    16    11   ar
@<TRIPOS>MOLECULE
*****
 25 28 0 0 0
SMALL
GASTEIGER

@<TRIPOS>ATOM
      1 O         143.3845  141.9990  165.7187 O.2     1  UNL1       -0.2523
      2 C         143.7195  141.1132  164.5555 C.2     1  UNL1        0.3076
      3 N         144.3881  141.5433  163.2835 N.am    1  UNL1       -0.2609
      4 C         144.5265  140.3376  162.4018 C.3     1  UNL1        0.1165
      5 C         143.9433  139.1624  163.1290 C.3     1  UNL1        0.1168
      6 N         143.4446  139.6417  164.4600 N.am    1  UNL1       -0.2581
      7 C         144.8392  142.9348  162.9514 C.3     1  UNL1        0.1123
      8 C         143.8443  143.9529  162.4784 C.3     1  UNL1        0.0944
      9 N         142.4120  143.8609  162.9144 N.3     1  UNL1       -0.2637
     10 C         141.3946  142.8864  162.3994 C.3     1  UNL1        0.0992
     11 C         140.0994  143.1504  163.1086 C.ar    1  UNL1       -0.0088
     12 C         138.7505  142.5019  163.0095 C.ar    1  UNL1       -0.0032
     13 C         137.6186  142.9910  163.8636 C.ar    1  UNL1       -0.0003
     14 C         137.8357  144.1286  164.8169 C.ar    1  UNL1       -0.0003
     15 C         139.1845  144.7771  164.9160 C.ar    1  UNL1       -0.0032
     16 C         140.3164  144.2880  164.0618 C.ar    1  UNL1       -0.0088
     17 C         141.7457  144.7271  163.9418 C.3     1  UNL1        0.0992
     18 C         142.7865  138.7977  165.5109 C.3     1  UNL1        0.1226
     19 C         141.2939  138.8126  165.6588 C.ar    1  UNL1        0.0083
     20 C         140.6444  139.7700  166.6134 C.ar    1  UNL1       -0.0018
     21 C         139.1518  139.7850  166.7614 C.ar    1  UNL1       -0.0002
     22 C         138.3087  138.8425  165.9546 C.ar    1  UNL1        0.0008
     23 C         138.9582  137.8850  164.9999 C.ar    1  UNL1        0.0111
     24 C         140.4509  137.8701  164.8520 C.ar    1  UNL1        0.0553
     25 CL        141.1004  136.9126  163.8974 Cl      1  UNL1       -0.0825
@<TRIPOS>BOND
     1     1     2    2
     2     2     3   am
     3     3     7    1
     4     7     8    1
     5     8     9    1
     6     9    10    1
     7    10    11    1
     8    11    12   ar
     9    12    13   ar
    10    13    14   ar
    11    14    15   ar
    12    15    16   ar
    13    16    17    1
    14     3     4    1
    15     4     5    1
    16     5     6    1
    17     6    18    1
    18    18    19    1
    19    19    20   ar
    20    20    21   ar
    21    21    22   ar
    22    22    23   ar
    23    23    24   ar
    24    24    25    1
    25     6     2   am
    26    24    19   ar
    27    17     9    1
    28    16    11   ar
@<TRIPOS>MOLECULE
*****
 25 28 0 0 0
SMALL
GASTEIGER

@<TRIPOS>ATOM
      1 O         140.7438  141.6401  162.0040 O.2     1  UNL1       -0.2523
      2 C         139.9161  142.7514  162.5783 C.2     1  UNL1        0.3076
      3 N         140.3726  144.1611  162.8112 N.am    1  UNL1       -0.2609
      4 C         139.2251  144.9291  163.3975 C.3     1  UNL1        0.1165
      5 C         138.0594  143.9939  163.5268 C.3     1  UNL1        0.1168
      6 N         138.4865  142.6480  163.0206 N.am    1  UNL1       -0.2581
      7 C         141.7370  144.7071  162.5107 C.3     1  UNL1        0.1123
      8 C         142.8738  144.4457  163.4537 C.3     1  UNL1        0.0944
      9 N         142.9795  143.1227  164.1527 N.3     1  UNL1       -0.2637
     10 C         142.2801  142.7381  165.4226 C.3     1  UNL1        0.0992
     11 C         142.6715  141.3297  165.7592 C.ar    1  UNL1       -0.0088
     12 C         142.2924  140.4269  166.8955 C.ar    1  UNL1       -0.0032
     13 C         142.8546  139.0383  166.9697 C.ar    1  UNL1       -0.0003
     14 C         143.7959  138.5524  165.9077 C.ar    1  UNL1       -0.0003
     15 C         144.1750  139.4552  164.7714 C.ar    1  UNL1       -0.0032
     16 C         143.6128  140.8439  164.6972 C.ar    1  UNL1       -0.0088
     17 C         143.8032  141.9520  163.7043 C.3     1  UNL1        0.0992
     18 C         137.6336  141.4153  162.9661 C.3     1  UNL1        0.1226
     19 C         138.0747  140.1664  163.6702 C.ar    1  UNL1        0.0083
     20 C         138.2242  140.1598  165.1626 C.ar    1  UNL1       -0.0018
     21 C         138.6653  138.9109  165.8668 C.ar    1  UNL1       -0.0002
     22 C         138.9569  137.6687  165.0783 C.ar    1  UNL1        0.0008
     23 C         138.8075  137.6752  163.5857 C.ar    1  UNL1        0.0111
     24 C         138.3664  138.9242  162.8817 C.ar    1  UNL1        0.0553
     25 CL        138.2169  138.9308  161.3892 Cl      1  UNL1       -0.0825
@<TRIPOS>BOND
     1     1     2    2
     2     2     3   am
     3     3     7    1
     4     7     8    1
     5     8     9    1
     6     9    10    1
     7    10    11    1
     8    11    12   ar
     9    12    13   ar
    10    13    14   ar
    11    14    15   ar
    12    15    16   ar
    13    16    17    1
    14     3     4    1
    15     4     5    1
    16     5     6    1
    17     6    18    1
    18    18    19    1
    19    19    20   ar
    20    20    21   ar
    21    21    22   ar
    22    22    23   ar
    23    23    24   ar
    24    24    25    1
    25     6     2   am
    26    24    19   ar
    27    17     9    1
    28    16    11   ar
@<TRIPOS>MOLECULE
*****
 25 28 0 0 0
SMALL
GASTEIGER

@<TRIPOS>ATOM
      1 O         140.7682  141.0798  162.1640 O.2     1  UNL1       -0.2523
      2 C         140.2176  139.7649  162.6308 C.2     1  UNL1        0.3076
      3 N         140.9201  138.4413  162.5642 N.am    1  UNL1       -0.2609
      4 C         140.0044  137.4011  163.1385 C.3     1  UNL1        0.1165
      5 C         138.7360  138.0820  163.5600 C.3     1  UNL1        0.1168
      6 N         138.8677  139.5429  163.2462 N.am    1  UNL1       -0.2581
      7 C         142.2966  138.2001  162.0191 C.3     1  UNL1        0.1123
      8 C         143.5005  138.6144  162.8121 C.3     1  UNL1        0.0944
      9 N         143.3278  139.2803  164.1450 N.3     1  UNL1       -0.2637
     10 C         143.0431  138.5892  165.4456 C.3     1  UNL1        0.0992
     11 C         142.9489  139.6360  166.5158 C.ar    1  UNL1       -0.0088
     12 C         142.6861  139.5436  167.9897 C.ar    1  UNL1       -0.0032
     13 C         142.6499  140.7893  168.8245 C.ar    1  UNL1       -0.0003
     14 C         142.8764  142.1273  168.1854 C.ar    1  UNL1       -0.0003
     15 C         143.1392  142.2197  166.7116 C.ar    1  UNL1       -0.0032
     16 C         143.1754  140.9740  165.8767 C.ar    1  UNL1       -0.0088
     17 C         143.4096  140.7542  164.4115 C.3     1  UNL1        0.0992
     18 C         137.8316  140.5966  163.5028 C.3     1  UNL1        0.1226
     19 C         138.2512  141.9763  163.9157 C.ar    1  UNL1        0.0083
     20 C         137.8558  143.1606  163.0845 C.ar    1  UNL1       -0.0018
     21 C         138.2753  144.5403  163.4973 C.ar    1  UNL1       -0.0002
     22 C         139.0903  144.7356  164.7413 C.ar    1  UNL1        0.0008
     23 C         139.4857  143.5513  165.5726 C.ar    1  UNL1        0.0111
     24 C         139.0661  142.1715  165.1597 C.ar    1  UNL1        0.0553
     25 CL        139.4615  140.9871  165.9910 Cl      1  UNL1       -0.0825
@<TRIPOS>BOND
     1     1     2    2
     2     2     3   am
     3     3     7    1
     4     7     8    1
     5     8     9    1
     6     9    10    1
     7    10    11    1
     8    11    12   ar
     9    12    13   ar
    10    13    14   ar
    11    14    15   ar
    12    15    16   ar
    13    16    17    1
    14     3     4    1
    15     4     5    1
    16     5     6    1
    17     6    18    1
    18    18    19    1
    19    19    20   ar
    20    20    21   ar
    21    21    22   ar
    22    22    23   ar
    23    23    24   ar
    24    24    25    1
    25     6     2   am
    26    24    19   ar
    27    17     9    1
    28    16    11   ar
@<TRIPOS>MOLECULE
*****
 25 28 0 0 0
SMALL
GASTEIGER

@<TRIPOS>ATOM
      1 O         141.7004  141.0177  161.9140 O.2     1  UNL1       -0.2523
      2 C         142.7871  141.9388  162.3839 C.2     1  UNL1        0.3076
      3 N         144.1484  141.5259  162.8596 N.am    1  UNL1       -0.2609
      4 C         144.9059  142.7665  163.2303 C.3     1  UNL1        0.1165
      5 C         144.0126  143.9460  162.9838 C.3     1  UNL1        0.1168
      6 N         142.7031  143.4345  162.4607 N.am    1  UNL1       -0.2581
      7 C         144.6621  140.1194  162.9488 C.3     1  UNL1        0.1123
      8 C         144.4025  139.3028  164.1799 C.3     1  UNL1        0.0944
      9 N         143.0037  139.1565  164.7016 N.3     1  UNL1       -0.2637
     10 C         142.3782  139.9776  165.7899 C.3     1  UNL1        0.0992
     11 C         140.9728  139.4919  165.9875 C.ar    1  UNL1       -0.0088
     12 C         139.8831  139.9259  166.9225 C.ar    1  UNL1       -0.0032
     13 C         138.5503  139.2385  166.8912 C.ar    1  UNL1       -0.0003
     14 C         138.3072  138.1172  165.9249 C.ar    1  UNL1       -0.0003
     15 C         139.3970  137.6832  164.9900 C.ar    1  UNL1       -0.0032
     16 C         140.7298  138.3706  165.0213 C.ar    1  UNL1       -0.0088
     17 C         141.9849  138.1633  164.2266 C.3     1  UNL1        0.0992
     18 C         141.5179  144.2717  162.0811 C.3     1  UNL1        0.1226
     19 C         140.2594  144.2027  162.8944 C.ar    1  UNL1        0.0083
     20 C         140.2384  144.7485  164.2913 C.ar    1  UNL1       -0.0018
     21 C         138.9800  144.6795  165.1047 C.ar    1  UNL1       -0.0002
     22 C         137.7425  144.0646  164.5210 C.ar    1  UNL1        0.0008
     23 C         137.7635  143.5188  163.1240 C.ar    1  UNL1        0.0111
     24 C         139.0220  143.5878  162.3107 C.ar    1  UNL1        0.0553
     25 CL        139.0430  143.0420  160.9137 Cl      1  UNL1       -0.0825
@<TRIPOS>BOND
     1     1     2    2
     2     2     3   am
     3     3     7    1
     4     7     8    1
     5     8     9    1
     6     9    10    1
     7    10    11    1
     8    11    12   ar
     9    12    13   ar
    10    13    14   ar
    11    14    15   ar
    12    15    16   ar
    13    16    17    1
    14     3     4    1
    15     4     5    1
    16     5     6    1
    17     6    18    1
    18    18    19    1
    19    19    20   ar
    20    20    21   ar
    21    21    22   ar
    22    22    23   ar
    23    23    24   ar
    24    24    25    1
    25     6     2   am
    26    24    19   ar
    27    17     9    1
    28    16    11   ar
@<TRIPOS>MOLECULE
*****
 25 28 0 0 0
SMALL
GASTEIGER

@<TRIPOS>ATOM
      1 O         140.3327  143.4603  165.7876 O.2     1  UNL1       -0.2523
      2 C         141.1332  143.8508  164.5806 C.2     1  UNL1        0.3076
      3 N         140.6001  144.5172  163.3470 N.am    1  UNL1       -0.2609
      4 C         141.7448  144.7217  162.3992 C.3     1  UNL1        0.1165
      5 C         142.9852  144.1817  163.0472 C.3     1  UNL1        0.1168
      6 N         142.6072  143.6434  164.3954 N.am    1  UNL1       -0.2581
      7 C         139.1731  144.9101  163.1037 C.3     1  UNL1        0.1123
      8 C         138.1326  143.8538  162.8770 C.3     1  UNL1        0.0944
      9 N         138.3744  142.4498  163.3465 N.3     1  UNL1       -0.2637
     10 C         137.8345  141.8352  164.6037 C.3     1  UNL1        0.0992
     11 C         138.3250  140.4194  164.6754 C.ar    1  UNL1       -0.0088
     12 C         138.1129  139.3338  165.6884 C.ar    1  UNL1       -0.0032
     13 C         138.7438  137.9878  165.4884 C.ar    1  UNL1       -0.0003
     14 C         139.5869  137.7274  164.2754 C.ar    1  UNL1       -0.0003
     15 C         139.7990  138.8131  163.2624 C.ar    1  UNL1       -0.0032
     16 C         139.1681  140.1591  163.4624 C.ar    1  UNL1       -0.0088
     17 C         139.1986  141.4139  162.6411 C.3     1  UNL1        0.0992
     18 C         143.5395  143.0092  165.3845 C.3     1  UNL1        0.1226
     19 C         143.3348  141.5826  165.8001 C.ar    1  UNL1        0.0083
     20 C         143.6119  140.4720  164.8308 C.ar    1  UNL1       -0.0018
     21 C         143.4072  139.0452  165.2463 C.ar    1  UNL1       -0.0002
     22 C         142.9254  138.7293  166.6312 C.ar    1  UNL1        0.0008
     23 C         142.6483  139.8398  167.6006 C.ar    1  UNL1        0.0111
     24 C         142.8530  141.2666  167.1850 C.ar    1  UNL1        0.0553
     25 CL        142.5759  142.3773  168.1543 Cl      1  UNL1       -0.0825
@<TRIPOS>BOND
     1     1     2    2
     2     2     3   am
     3     3     7    1
     4     7     8    1
     5     8     9    1
     6     9    10    1
     7    10    11    1
     8    11    12   ar
     9    12    13   ar
    10    13    14   ar
    11    14    15   ar
    12    15    16   ar
    13    16    17    1
    14     3     4    1
    15     4     5    1
    16     5     6    1
    17     6    18    1
    18    18    19    1
    19    19    20   ar
    20    20    21   ar
    21    21    22   ar
    22    22    23   ar
    23    23    24   ar
    24    24    25    1
    25     6     2   am
    26    24    19   ar
    27    17     9    1
    28    16    11   ar
@<TRIPOS>MOLECULE
*****
 25 28 0 0 0
SMALL
GASTEIGER

@<TRIPOS>ATOM
      1 O         142.1947  139.2806  161.7019 O.2     1  UNL1       -0.2523
      2 C         141.2612  138.6497  162.6922 C.2     1  UNL1        0.3076
      3 N         139.8396  138.2481  162.4318 N.am    1  UNL1       -0.2609
      4 C         139.2853  137.6598  163.6954 C.3     1  UNL1        0.1165
      5 C         140.3643  137.6978  164.7367 C.3     1  UNL1        0.1168
      6 N         141.5855  138.3096  164.1167 N.am    1  UNL1       -0.2581
      7 C         139.1019  138.4069  161.1354 C.3     1  UNL1        0.1123
      8 C         138.3856  139.6895  160.8324 C.3     1  UNL1        0.0944
      9 N         138.5431  140.8700  161.7442 N.3     1  UNL1       -0.2637
     10 C         137.5478  141.3337  162.7662 C.3     1  UNL1        0.0992
     11 C         138.1131  142.5444  163.4478 C.ar    1  UNL1       -0.0088
     12 C         137.5771  143.4245  164.5378 C.ar    1  UNL1       -0.0032
     13 C         138.3858  144.5892  165.0272 C.ar    1  UNL1       -0.0003
     14 C         139.7305  144.8738  164.4265 C.ar    1  UNL1       -0.0003
     15 C         140.2665  143.9937  163.3365 C.ar    1  UNL1       -0.0032
     16 C         139.4578  142.8291  162.8471 C.ar    1  UNL1       -0.0088
     17 C         139.7235  141.7942  161.7943 C.3     1  UNL1        0.0992
     18 C         142.9001  138.5406  164.8010 C.3     1  UNL1        0.1226
     19 C         143.6021  139.8578  164.6517 C.ar    1  UNL1        0.0083
     20 C         144.9476  139.9200  163.9918 C.ar    1  UNL1       -0.0018
     21 C         145.6497  141.2371  163.8425 C.ar    1  UNL1       -0.0002
     22 C         145.0060  142.4921  164.3531 C.ar    1  UNL1        0.0008
     23 C         143.6604  142.4300  165.0131 C.ar    1  UNL1        0.0111
     24 C         142.9584  141.1128  165.1624 C.ar    1  UNL1        0.0553
     25 CL        141.6128  141.0506  165.8223 Cl      1  UNL1       -0.0825
@<TRIPOS>BOND
     1     1     2    2
     2     2     3   am
     3     3     7    1
     4     7     8    1
     5     8     9    1
     6     9    10    1
     7    10    11    1
     8    11    12   ar
     9    12    13   ar
    10    13    14   ar
    11    14    15   ar
    12    15    16   ar
    13    16    17    1
    14     3     4    1
    15     4     5    1
    16     5     6    1
    17     6    18    1
    18    18    19    1
    19    19    20   ar
    20    20    21   ar
    21    21    22   ar
    22    22    23   ar
    23    23    24   ar
    24    24    25    1
    25     6     2   am
    26    24    19   ar
    27    17     9    1
    28    16    11   ar
@<TRIPOS>MOLECULE
*****
 25 28 0 0 0
SMALL
GASTEIGER

@<TRIPOS>ATOM
      1 O         139.9355  140.2161  161.8491 O.2     1  UNL1       -0.2523
      2 C         140.2020  139.2932  163.0012 C.2     1  UNL1        0.3076
      3 N         141.2579  138.2290  163.0524 N.am    1  UNL1       -0.2609
      4 C         141.1678  137.5506  164.3873 C.3     1  UNL1        0.1165
      5 C         140.0563  138.1956  165.1609 C.3     1  UNL1        0.1168
      6 N         139.4594  139.2726  164.3043 N.am    1  UNL1       -0.2581
      7 C         142.2326  137.9008  161.9606 C.3     1  UNL1        0.1123
      8 C         143.5228  138.6584  161.8543 C.3     1  UNL1        0.0944
      9 N         143.6201  140.0538  162.3961 N.3     1  UNL1       -0.2637
     10 C         143.3282  141.3157  161.6395 C.3     1  UNL1        0.0992
     11 C         143.5539  142.4740  162.5654 C.ar    1  UNL1       -0.0088
     12 C         143.4224  143.9554  162.3701 C.ar    1  UNL1       -0.0032
     13 C         143.7223  144.8908  163.5037 C.ar    1  UNL1       -0.0003
     14 C         144.1537  144.3448  164.8325 C.ar    1  UNL1       -0.0003
     15 C         144.2852  142.8635  165.0278 C.ar    1  UNL1       -0.0032
     16 C         143.9853  141.9281  163.8942 C.ar    1  UNL1       -0.0088
     17 C         144.0262  140.4323  163.7896 C.3     1  UNL1        0.0992
     18 C         138.3200  140.1711  164.6842 C.3     1  UNL1        0.1226
     19 C         138.4899  141.6605  164.6324 C.ar    1  UNL1        0.0083
     20 C         137.6538  142.4785  163.6935 C.ar    1  UNL1       -0.0018
     21 C         137.8236  143.9680  163.6416 C.ar    1  UNL1       -0.0002
     22 C         138.8297  144.6393  164.5288 C.ar    1  UNL1        0.0008
     23 C         139.6659  143.8214  165.4678 C.ar    1  UNL1        0.0111
     24 C         139.4960  142.3318  165.5196 C.ar    1  UNL1        0.0553
     25 CL        140.3321  141.5138  166.4585 Cl      1  UNL1       -0.0825
@<TRIPOS>BOND
     1     1     2    2
     2     2     3   am
     3     3     7    1
     4     7     8    1
     5     8     9    1
     6     9    10    1
     7    10    11    1
     8    11    12   ar
     9    12    13   ar
    10    13    14   ar
    11    14    15   ar
    12    15    16   ar
    13    16    17    1
    14     3     4    1
    15     4     5    1
    16     5     6    1
    17     6    18    1
    18    18    19    1
    19    19    20   ar
    20    20    21   ar
    21    21    22   ar
    22    22    23   ar
    23    23    24   ar
    24    24    25    1
    25     6     2   am
    26    24    19   ar
    27    17     9    1
    28    16    11   ar
