@<TRIPOS>MOLECULE
*****
 25 27 0 0 0
SMALL
GASTEIGER

@<TRIPOS>ATOM
      1 C         138.0968  140.5445  161.6956 C.3     1  UNL1        0.0964
      2 C         138.1395  140.1490  160.2493 C.3     1  UNL1        0.0901
      3 N         139.2114  139.1128  160.0835 N.3     1  UNL1       -0.2700
      4 C         139.5960  138.4398  158.7994 C.3     1  UNL1        0.0897
      5 C         139.8311  138.8679  161.4274 C.3     1  UNL1        0.0780
      6 C         139.1423  139.7527  162.4237 C.3     1  UNL1        0.0557
      7 C         139.4457  139.8318  163.8906 C.ar    1  UNL1       -0.0197
      8 C         138.5991  139.0785  164.8733 C.ar    1  UNL1       -0.0042
      9 C         138.9025  139.1576  166.3401 C.ar    1  UNL1       -0.0003
     10 C         140.0525  139.9901  166.8243 C.ar    1  UNL1        0.0005
     11 C         140.8991  140.7434  165.8416 C.ar    1  UNL1       -0.0003
     12 C         140.5957  140.6643  164.3748 C.ar    1  UNL1       -0.0042
     13 C         140.3559  140.0692  168.2912 C.ar    1  UNL1        0.0070
     14 C         139.3613  140.3243  169.3847 C.ar    1  UNL1        0.0075
     15 C         140.0978  140.3199  170.6914 C.ar    1  UNL1        0.0355
     16 S         141.5476  140.0621  170.4055 S.2     1  UNL1       -0.0859
     17 C         141.7071  139.9072  168.9221 C.ar    1  UNL1        0.0354
     18 N         137.1712  141.5544  162.3065 N.3     1  UNL1       -0.1830
     19 H         136.5032  141.8176  161.5821 H       1  UNL1        0.1484
     20 S         137.7210  142.8299  162.8727 S.O2    1  UNL1        0.0390
     21 O         137.4037  142.3515  164.2586 O.2     1  UNL1       -0.1576
     22 O         138.0382  143.3083  161.4870 O.2     1  UNL1       -0.1576
     23 C         138.1844  144.3703  164.9129 C.3     1  UNL1        0.0270
     24 C         138.2708  144.1054  163.4390 C.3     1  UNL1        0.1457
     25 C         138.9070  145.1162  162.5315 C.3     1  UNL1        0.0270
@<TRIPOS>BOND
     1    23    24    1
     2    24    25    1
     3    24    20    1
     4    20    21    2
     5    20    22    2
     6    20    18    1
     7     1    18    1
     8     1     2    1
     9     2     3    1
    10     3     4    1
    11     3     5    1
    12     5     6    1
    13     6     7    1
    14     7     8   ar
    15     8     9   ar
    16     9    10   ar
    17    10    13    1
    18    13    14   ar
    19    14    15   ar
    20    15    16   ar
    21    16    17   ar
    22    10    11   ar
    23    11    12   ar
    24     6     1    1
    25    12     7   ar
    26    17    13   ar
    27    18    19    1
@<TRIPOS>MOLECULE
*****
 25 27 0 0 0
SMALL
GASTEIGER

@<TRIPOS>ATOM
      1 C         141.8157  144.3558  161.3479 C.3     1  UNL1        0.0964
      2 C         141.5278  144.4861  159.8815 C.3     1  UNL1        0.0901
      3 N         140.2442  143.7647  159.5952 N.3     1  UNL1       -0.2700
      4 C         139.5823  143.6411  158.2549 C.3     1  UNL1        0.0897
      5 C         139.7387  143.1886  160.8847 C.3     1  UNL1        0.0780
      6 C         140.7099  143.5540  161.9679 C.3     1  UNL1        0.0557
      7 C         140.5955  143.1826  163.4167 C.ar    1  UNL1       -0.0197
      8 C         139.9680  144.1376  164.3884 C.ar    1  UNL1       -0.0042
      9 C         139.8536  143.7662  165.8372 C.ar    1  UNL1       -0.0003
     10 C         140.3666  142.4399  166.3142 C.ar    1  UNL1        0.0005
     11 C         140.9941  141.4849  165.3425 C.ar    1  UNL1       -0.0003
     12 C         141.1085  141.8563  163.8938 C.ar    1  UNL1       -0.0042
     13 C         140.2521  142.0685  167.7631 C.ar    1  UNL1        0.0070
     14 C         140.5008  142.9790  168.9289 C.ar    1  UNL1        0.0075
     15 C         140.2713  142.1948  170.1868 C.ar    1  UNL1        0.0355
     16 S         139.8807  140.7995  169.7983 S.2     1  UNL1       -0.0859
     17 C         139.8689  140.7215  168.3004 C.ar    1  UNL1        0.0354
     18 N         143.0011  144.9272  162.0678 N.3     1  UNL1       -0.1830
     19 H         143.6497  145.2558  161.3525 H       1  UNL1        0.1484
     20 S         143.7929  144.0682  163.0086 S.O2    1  UNL1        0.0390
     21 O         144.1457  143.1517  161.8747 O.2     1  UNL1       -0.1576
     22 O         143.4401  144.9846  164.1424 O.2     1  UNL1       -0.1576
     23 C         144.5208  143.4587  165.4270 C.3     1  UNL1        0.0270
     24 C         144.5847  143.2091  163.9493 C.3     1  UNL1        0.1457
     25 C         145.4405  142.1004  163.4123 C.3     1  UNL1        0.0270
@<TRIPOS>BOND
     1    23    24    1
     2    24    25    1
     3    24    20    1
     4    20    21    2
     5    20    22    2
     6    20    18    1
     7     1    18    1
     8     1     2    1
     9     2     3    1
    10     3     4    1
    11     3     5    1
    12     5     6    1
    13     6     7    1
    14     7     8   ar
    15     8     9   ar
    16     9    10   ar
    17    10    13    1
    18    13    14   ar
    19    14    15   ar
    20    15    16   ar
    21    16    17   ar
    22    10    11   ar
    23    11    12   ar
    24     6     1    1
    25    12     7   ar
    26    17    13   ar
    27    18    19    1
@<TRIPOS>MOLECULE
*****
 25 27 0 0 0
SMALL
GASTEIGER

@<TRIPOS>ATOM
      1 C         144.1990  139.8568  161.8906 C.3     1  UNL1        0.0964
      2 C         144.1344  139.3725  160.4724 C.3     1  UNL1        0.0901
      3 N         142.9491  138.4619  160.3470 N.3     1  UNL1       -0.2700
      4 C         142.5090  137.7540  159.0999 C.3     1  UNL1        0.0897
      5 C         142.2810  138.3834  161.6878 C.3     1  UNL1        0.0780
      6 C         143.0535  139.2455  162.6418 C.3     1  UNL1        0.0557
      7 C         142.7362  139.4588  164.0923 C.ar    1  UNL1       -0.0197
      8 C         143.4801  138.6901  165.1437 C.ar    1  UNL1       -0.0042
      9 C         143.1628  138.9035  166.5941 C.ar    1  UNL1       -0.0003
     10 C         142.1015  139.8855  166.9931 C.ar    1  UNL1        0.0005
     11 C         141.3575  140.6542  165.9416 C.ar    1  UNL1       -0.0003
     12 C         141.6749  140.4409  164.4912 C.ar    1  UNL1       -0.0042
     13 C         141.7841  140.0989  168.4436 C.ar    1  UNL1        0.0070
     14 C         142.7765  140.3936  169.5291 C.ar    1  UNL1        0.0075
     15 C         142.0245  140.5318  170.8196 C.ar    1  UNL1        0.0355
     16 S         140.5673  140.3225  170.5316 S.2     1  UNL1       -0.0859
     17 C         140.4188  140.0549  169.0631 C.ar    1  UNL1        0.0354
     18 N         145.2282  140.7888  162.4580 N.3     1  UNL1       -0.1830
     19 H         145.7567  140.2576  163.1501 H       1  UNL1        0.1484
     20 S         144.8006  142.0628  163.1242 S.O2    1  UNL1        0.0390
     21 O         145.4604  141.6192  164.3962 O.2     1  UNL1       -0.1576
     22 O         144.1407  142.5065  161.8524 O.2     1  UNL1       -0.1576
     23 C         144.3320  143.4232  165.2875 C.3     1  UNL1        0.0270
     24 C         144.3729  143.3368  163.7906 C.3     1  UNL1        0.1457
     25 C         143.9861  144.5244  162.9600 C.3     1  UNL1        0.0270
@<TRIPOS>BOND
     1    23    24    1
     2    24    25    1
     3    24    20    1
     4    20    21    2
     5    20    22    2
     6    20    18    1
     7     1    18    1
     8     1     2    1
     9     2     3    1
    10     3     4    1
    11     3     5    1
    12     5     6    1
    13     6     7    1
    14     7     8   ar
    15     8     9   ar
    16     9    10   ar
    17    10    13    1
    18    13    14   ar
    19    14    15   ar
    20    15    16   ar
    21    16    17   ar
    22    10    11   ar
    23    11    12   ar
    24     6     1    1
    25    12     7   ar
    26    17    13   ar
    27    18    19    1
@<TRIPOS>MOLECULE
*****
 25 27 0 0 0
SMALL
GASTEIGER

@<TRIPOS>ATOM
      1 C         141.6898  144.6556  161.3713 C.3     1  UNL1        0.0964
      2 C         141.9002  144.7768  159.8911 C.3     1  UNL1        0.0901
      3 N         142.8176  143.6705  159.4612 N.3     1  UNL1       -0.2700
      4 C         143.2947  143.4142  158.0624 C.3     1  UNL1        0.0897
      5 C         143.1741  142.8657  160.6758 C.3     1  UNL1        0.0780
      6 C         142.4770  143.4746  161.8563 C.3     1  UNL1        0.0557
      7 C         142.5539  142.9877  163.2731 C.ar    1  UNL1       -0.0197
      8 C         141.5647  141.9773  163.7735 C.ar    1  UNL1       -0.0042
      9 C         141.6415  141.4905  165.1902 C.ar    1  UNL1       -0.0003
     10 C         142.7076  142.0141  166.1065 C.ar    1  UNL1        0.0005
     11 C         143.6967  143.0246  165.6060 C.ar    1  UNL1       -0.0003
     12 C         143.6199  143.5114  164.1893 C.ar    1  UNL1       -0.0042
     13 C         142.7844  141.5273  167.5232 C.ar    1  UNL1        0.0070
     14 C         143.2487  142.3250  168.7056 C.ar    1  UNL1        0.0075
     15 C         143.1617  141.4480  169.9195 C.ar    1  UNL1        0.0355
     16 S         142.6435  140.1083  169.4872 S.2     1  UNL1       -0.0859
     17 C         142.4103  140.1574  168.0063 C.ar    1  UNL1        0.0354
     18 N         140.8410  145.5573  162.2179 N.3     1  UNL1       -0.1830
     19 H         141.4702  146.0302  162.8666 H       1  UNL1        0.1484
     20 S         139.7243  144.9834  163.0385 S.O2    1  UNL1        0.0390
     21 O         138.9218  144.7610  161.7908 O.2     1  UNL1       -0.1576
     22 O         140.5266  145.2058  164.2861 O.2     1  UNL1       -0.1576
     23 C         137.6460  143.4376  163.2417 C.3     1  UNL1        0.0270
     24 C         138.6074  144.4096  163.8590 C.3     1  UNL1        0.1457
     25 C         138.4519  144.8077  165.2968 C.3     1  UNL1        0.0270
@<TRIPOS>BOND
     1    23    24    1
     2    24    25    1
     3    24    20    1
     4    20    21    2
     5    20    22    2
     6    20    18    1
     7     1    18    1
     8     1     2    1
     9     2     3    1
    10     3     4    1
    11     3     5    1
    12     5     6    1
    13     6     7    1
    14     7     8   ar
    15     8     9   ar
    16     9    10   ar
    17    10    13    1
    18    13    14   ar
    19    14    15   ar
    20    15    16   ar
    21    16    17   ar
    22    10    11   ar
    23    11    12   ar
    24     6     1    1
    25    12     7   ar
    26    17    13   ar
    27    18    19    1
@<TRIPOS>MOLECULE
*****
 25 27 0 0 0
SMALL
GASTEIGER

@<TRIPOS>ATOM
      1 C         143.4666  142.8334  160.9226 C.3     1  UNL1        0.0964
      2 C         143.0621  143.5389  159.6622 C.3     1  UNL1        0.0901
      3 N         141.9367  144.4732  159.9948 N.3     1  UNL1       -0.2700
      4 C         141.2269  145.3770  159.0307 C.3     1  UNL1        0.0897
      5 C         141.6457  144.3451  161.4607 C.3     1  UNL1        0.0780
      6 C         142.5912  143.3316  162.0341 C.3     1  UNL1        0.0557
      7 C         142.6509  142.8934  163.4675 C.ar    1  UNL1       -0.0197
      8 C         143.7379  143.4072  164.3642 C.ar    1  UNL1       -0.0042
      9 C         143.7975  142.9690  165.7975 C.ar    1  UNL1       -0.0003
     10 C         142.7701  142.0168  166.3340 C.ar    1  UNL1        0.0005
     11 C         141.6830  141.5030  165.4372 C.ar    1  UNL1       -0.0003
     12 C         141.6234  141.9412  164.0040 C.ar    1  UNL1       -0.0042
     13 C         142.8297  141.5786  167.7674 C.ar    1  UNL1        0.0070
     14 C         143.3517  142.3895  168.9163 C.ar    1  UNL1        0.0075
     15 C         143.2224  141.5646  170.1624 C.ar    1  UNL1        0.0355
     16 S         142.6206  140.2438  169.7836 S.2     1  UNL1       -0.0859
     17 C         142.3779  140.2525  168.3034 C.ar    1  UNL1        0.0354
     18 N         144.5554  141.8094  161.0493 N.3     1  UNL1       -0.1830
     19 H         144.7231  141.4407  160.1131 H       1  UNL1        0.1484
     20 S         144.3716  140.6271  161.9538 S.O2    1  UNL1        0.0390
     21 O         143.1999  140.1798  161.1310 O.2     1  UNL1       -0.1576
     22 O         145.5432  141.0744  162.7766 O.2     1  UNL1       -0.1576
     23 C         144.7986  139.4463  164.2283 C.3     1  UNL1        0.0270
     24 C         144.1877  139.4447  162.8583 C.3     1  UNL1        0.1457
     25 C         143.3931  138.2608  162.3929 C.3     1  UNL1        0.0270
@<TRIPOS>BOND
     1    23    24    1
     2    24    25    1
     3    24    20    1
     4    20    21    2
     5    20    22    2
     6    20    18    1
     7     1    18    1
     8     1     2    1
     9     2     3    1
    10     3     4    1
    11     3     5    1
    12     5     6    1
    13     6     7    1
    14     7     8   ar
    15     8     9   ar
    16     9    10   ar
    17    10    13    1
    18    13    14   ar
    19    14    15   ar
    20    15    16   ar
    21    16    17   ar
    22    10    11   ar
    23    11    12   ar
    24     6     1    1
    25    12     7   ar
    26    17    13   ar
    27    18    19    1
@<TRIPOS>MOLECULE
*****
 25 27 0 0 0
SMALL
GASTEIGER

@<TRIPOS>ATOM
      1 C         143.9419  140.9556  161.6344 C.3     1  UNL1        0.0964
      2 C         144.0445  141.2859  160.1749 C.3     1  UNL1        0.0901
      3 N         143.3876  142.6161  159.9533 N.3     1  UNL1       -0.2700
      4 C         143.2615  143.3293  158.6397 C.3     1  UNL1        0.0897
      5 C         142.8791  143.1079  161.2760 C.3     1  UNL1        0.0780
      6 C         143.2216  142.0817  162.3150 C.3     1  UNL1        0.0557
      7 C         142.9002  142.1666  163.7777 C.ar    1  UNL1       -0.0197
      8 C         141.5154  141.8524  164.2608 C.ar    1  UNL1       -0.0042
      9 C         141.1941  141.9374  165.7235 C.ar    1  UNL1       -0.0003
     10 C         142.2576  142.3365  166.7031 C.ar    1  UNL1        0.0005
     11 C         143.6425  142.6507  166.2200 C.ar    1  UNL1       -0.0003
     12 C         143.9638  142.5657  164.7573 C.ar    1  UNL1       -0.0042
     13 C         141.9362  142.4214  168.1659 C.ar    1  UNL1        0.0070
     14 C         140.6238  142.8432  168.7572 C.ar    1  UNL1        0.0075
     15 C         140.7473  142.7820  170.2508 C.ar    1  UNL1        0.0355
     16 S         142.1361  142.3223  170.5826 S.2     1  UNL1       -0.0859
     17 C         142.8708  142.0995  169.2941 C.ar    1  UNL1        0.0354
     18 N         144.4673  139.7168  162.2971 N.3     1  UNL1       -0.1830
     19 H         144.5686  139.0123  161.5664 H       1  UNL1        0.1484
     20 S         143.6939  139.0766  163.4114 S.O2    1  UNL1        0.0390
     21 O         142.5376  138.8555  162.4818 O.2     1  UNL1       -0.1576
     22 O         144.8501  139.2976  164.3410 O.2     1  UNL1       -0.1576
     23 C         143.4227  138.5269  165.9362 C.3     1  UNL1        0.0270
     24 C         142.9203  138.4363  164.5257 C.3     1  UNL1        0.1457
     25 C         141.6443  137.7055  164.2296 C.3     1  UNL1        0.0270
@<TRIPOS>BOND
     1    23    24    1
     2    24    25    1
     3    24    20    1
     4    20    21    2
     5    20    22    2
     6    20    18    1
     7     1    18    1
     8     1     2    1
     9     2     3    1
    10     3     4    1
    11     3     5    1
    12     5     6    1
    13     6     7    1
    14     7     8   ar
    15     8     9   ar
    16     9    10   ar
    17    10    13    1
    18    13    14   ar
    19    14    15   ar
    20    15    16   ar
    21    16    17   ar
    22    10    11   ar
    23    11    12   ar
    24     6     1    1
    25    12     7   ar
    26    17    13   ar
    27    18    19    1
@<TRIPOS>MOLECULE
*****
 25 27 0 0 0
SMALL
GASTEIGER

@<TRIPOS>ATOM
      1 C         139.1205  143.1553  161.0736 C.3     1  UNL1        0.0964
      2 C         139.4707  143.6471  159.7005 C.3     1  UNL1        0.0901
      3 N         140.7884  144.3588  159.7852 N.3     1  UNL1       -0.2700
      4 C         141.5145  145.0084  158.6447 C.3     1  UNL1        0.0897
      5 C         141.2525  144.3068  161.2106 C.3     1  UNL1        0.0780
      6 C         140.2217  143.5630  162.0069 C.3     1  UNL1        0.0557
      7 C         140.2816  143.2771  163.4783 C.ar    1  UNL1       -0.0197
      8 C         141.2155  142.2259  164.0006 C.ar    1  UNL1       -0.0042
      9 C         141.2753  141.9401  165.4719 C.ar    1  UNL1       -0.0003
     10 C         140.4013  142.7054  166.4208 C.ar    1  UNL1        0.0005
     11 C         139.4674  143.7565  165.8984 C.ar    1  UNL1       -0.0003
     12 C         139.4076  144.0424  164.4272 C.ar    1  UNL1       -0.0042
     13 C         140.4612  142.4195  167.8921 C.ar    1  UNL1        0.0070
     14 C         140.2945  143.4245  168.9931 C.ar    1  UNL1        0.0075
     15 C         140.4285  142.7046  170.3022 C.ar    1  UNL1        0.0355
     16 S         140.6782  141.2546  170.0102 S.2     1  UNL1       -0.0859
     17 C         140.6984  141.0784  168.5208 C.ar    1  UNL1        0.0354
     18 N         137.8858  142.3901  161.4477 N.3     1  UNL1       -0.1830
     19 H         137.3025  143.0221  161.9961 H       1  UNL1        0.1484
     20 S         138.0012  141.1170  162.2325 S.O2    1  UNL1        0.0390
     21 O         137.1503  141.7085  163.3171 O.2     1  UNL1       -0.1576
     22 O         138.8520  140.5256  161.1481 O.2     1  UNL1       -0.1576
     23 C         138.1884  139.8901  164.5150 C.3     1  UNL1        0.0270
     24 C         138.1166  139.8440  163.0174 C.3     1  UNL1        0.1457
     25 C         138.1602  138.5248  162.3048 C.3     1  UNL1        0.0270
@<TRIPOS>BOND
     1    23    24    1
     2    24    25    1
     3    24    20    1
     4    20    21    2
     5    20    22    2
     6    20    18    1
     7     1    18    1
     8     1     2    1
     9     2     3    1
    10     3     4    1
    11     3     5    1
    12     5     6    1
    13     6     7    1
    14     7     8   ar
    15     8     9   ar
    16     9    10   ar
    17    10    13    1
    18    13    14   ar
    19    14    15   ar
    20    15    16   ar
    21    16    17   ar
    22    10    11   ar
    23    11    12   ar
    24     6     1    1
    25    12     7   ar
    26    17    13   ar
    27    18    19    1
@<TRIPOS>MOLECULE
*****
 25 27 0 0 0
SMALL
GASTEIGER

@<TRIPOS>ATOM
      1 C         138.5688  141.5376  161.8170 C.3     1  UNL1        0.0964
      2 C         138.3609  141.8446  160.3636 C.3     1  UNL1        0.0901
      3 N         139.3582  142.8912  159.9636 N.3     1  UNL1       -0.2700
      4 C         139.5054  143.4925  158.5973 C.3     1  UNL1        0.0897
      5 C         140.1825  143.2310  161.1699 C.3     1  UNL1        0.0780
      6 C         139.6946  142.3944  162.3153 C.3     1  UNL1        0.0557
      7 C         140.2373  142.4116  163.7137 C.ar    1  UNL1       -0.0197
      8 C         139.5176  143.1715  164.7882 C.ar    1  UNL1       -0.0042
      9 C         140.0603  143.1887  166.1864 C.ar    1  UNL1       -0.0003
     10 C         141.3228  142.4461  166.5101 C.ar    1  UNL1        0.0005
     11 C         142.0425  141.6863  165.4356 C.ar    1  UNL1       -0.0003
     12 C         141.4998  141.6690  164.0374 C.ar    1  UNL1       -0.0042
     13 C         141.8655  142.4633  167.9085 C.ar    1  UNL1        0.0070
     14 C         143.2946  142.2343  168.3024 C.ar    1  UNL1        0.0075
     15 C         143.3868  142.3420  169.7957 C.ar    1  UNL1        0.0355
     16 S         142.0145  142.6376  170.3247 S.2     1  UNL1       -0.0859
     17 C         141.0744  142.7126  169.1583 C.ar    1  UNL1        0.0354
     18 N         137.7879  140.5476  162.6295 N.3     1  UNL1       -0.1830
     19 H         137.3432  141.0710  163.3835 H       1  UNL1        0.1484
     20 S         138.4860  139.3818  163.2647 S.O2    1  UNL1        0.0390
     21 O         138.0741  139.8741  164.6205 O.2     1  UNL1       -0.1576
     22 O         138.8979  138.8896  161.9091 O.2     1  UNL1       -0.1576
     23 C         140.2820  137.5072  163.1639 C.3     1  UNL1        0.0270
     24 C         139.1841  138.2161  163.9002 C.3     1  UNL1        0.1457
     25 C         138.7843  137.7593  165.2718 C.3     1  UNL1        0.0270
@<TRIPOS>BOND
     1    23    24    1
     2    24    25    1
     3    24    20    1
     4    20    21    2
     5    20    22    2
     6    20    18    1
     7     1    18    1
     8     1     2    1
     9     2     3    1
    10     3     4    1
    11     3     5    1
    12     5     6    1
    13     6     7    1
    14     7     8   ar
    15     8     9   ar
    16     9    10   ar
    17    10    13    1
    18    13    14   ar
    19    14    15   ar
    20    15    16   ar
    21    16    17   ar
    22    10    11   ar
    23    11    12   ar
    24     6     1    1
    25    12     7   ar
    26    17    13   ar
    27    18    19    1
@<TRIPOS>MOLECULE
*****
 25 27 0 0 0
SMALL
GASTEIGER

@<TRIPOS>ATOM
      1 C         139.9872  140.6865  167.9656 C.3     1  UNL1        0.0964
      2 C         140.2879  140.4000  169.4069 C.3     1  UNL1        0.0901
      3 N         141.2217  141.4627  169.9058 N.3     1  UNL1       -0.2700
      4 C         141.7808  141.5642  171.2940 C.3     1  UNL1        0.0897
      5 C         141.4981  142.4059  168.7728 C.3     1  UNL1        0.0780
      6 C         140.7352  141.9263  167.5736 C.3     1  UNL1        0.0557
      7 C         140.7225  142.5729  166.2202 C.ar    1  UNL1       -0.0197
      8 C         139.5286  143.3669  165.7795 C.ar    1  UNL1       -0.0042
      9 C         139.5160  144.0135  164.4261 C.ar    1  UNL1       -0.0003
     10 C         140.6971  143.8660  163.5134 C.ar    1  UNL1        0.0005
     11 C         141.8909  143.0719  163.9540 C.ar    1  UNL1       -0.0003
     12 C         141.9036  142.4254  165.3074 C.ar    1  UNL1       -0.0042
     13 C         140.6844  144.5126  162.1599 C.ar    1  UNL1        0.0070
     14 C         139.8620  145.7010  161.7582 C.ar    1  UNL1        0.0075
     15 C         140.1612  146.0073  160.3206 C.ar    1  UNL1        0.0355
     16 S         141.1685  145.0080  159.8338 S.2     1  UNL1       -0.0859
     17 C         141.4919  144.0843  160.9705 C.ar    1  UNL1        0.0354
     18 N         139.0952  139.8757  167.0729 N.3     1  UNL1       -0.1830
     19 H         138.9114  138.9980  167.5591 H       1  UNL1        0.1484
     20 S         139.5458  139.5173  165.6879 S.O2    1  UNL1        0.0390
     21 O         138.2822  140.0988  165.1264 O.2     1  UNL1       -0.1576
     22 O         140.8093  138.9358  166.2492 O.2     1  UNL1       -0.1576
     23 C         139.7673  140.1141  163.1690 C.3     1  UNL1        0.0270
     24 C         139.9962  139.1589  164.3027 C.3     1  UNL1        0.1457
     25 C         140.6755  137.8454  164.0512 C.3     1  UNL1        0.0270
@<TRIPOS>BOND
     1    23    24    1
     2    24    25    1
     3    24    20    1
     4    20    21    2
     5    20    22    2
     6    20    18    1
     7     1    18    1
     8     1     2    1
     9     2     3    1
    10     3     4    1
    11     3     5    1
    12     5     6    1
    13     6     7    1
    14     7     8   ar
    15     8     9   ar
    16     9    10   ar
    17    10    13    1
    18    13    14   ar
    19    14    15   ar
    20    15    16   ar
    21    16    17   ar
    22    10    11   ar
    23    11    12   ar
    24     6     1    1
    25    12     7   ar
    26    17    13   ar
    27    18    19    1
