@<TRIPOS>MOLECULE
*****
 25 27 0 0 0
SMALL
GASTEIGER

@<TRIPOS>ATOM
      1 N         138.8558  144.4903  163.3301 N.3     1  UNL1       -0.2639
      2 C         137.8535  143.7793  162.4700 C.3     1  UNL1        0.0902
      3 C         138.5863  144.6827  164.7931 C.3     1  UNL1        0.0992
      4 C         139.7317  142.5251  165.6778 C.2     1  UNL1       -0.0010
      5 C         139.4440  143.9912  165.8110 C.2     1  UNL1       -0.0087
      6 C         142.3049  140.4508  168.7316 C.ar    1  UNL1        0.1410
      7 C         142.7968  141.6982  168.0594 C.ar    1  UNL1        0.0370
      8 C         141.9391  142.3896  167.0414 C.ar    1  UNL1        0.0053
      9 C         140.5895  141.8336  166.6958 C.ar    1  UNL1        0.0274
     10 C         140.0976  140.5862  167.3681 C.ar    1  UNL1        0.1431
     11 F         138.7480  140.0302  167.0225 F       1  UNL1       -0.2041
     12 C         140.9553  139.8948  168.3860 C.ar    1  UNL1        0.0665
     13 C         142.8067  138.3792  170.2172 C.3     1  UNL1        0.2525
     14 O         143.1627  139.7593  169.7496 O.3     1  UNL1       -0.4714
     15 C         140.1276  145.0088  162.7272 C.3     1  UNL1        0.0995
     16 C         141.4414  144.3868  163.0976 C.ar    1  UNL1       -0.0031
     17 C         142.4596  145.1825  163.8593 C.ar    1  UNL1       -0.0030
     18 C         143.7734  144.5606  164.2297 C.ar    1  UNL1       -0.0016
     19 C         144.0690  143.1429  163.8384 C.ar    1  UNL1        0.0119
     20 C         143.0507  142.3473  163.0768 C.ar    1  UNL1        0.1342
     21 C         141.7369  142.9693  162.7063 C.ar    1  UNL1        0.0337
     22 O         143.3463  140.9297  162.6855 O.3     1  UNL1       -0.4758
     23 C         144.6600  140.3078  163.0559 C.3     1  UNL1        0.2057
     24 C         145.6782  141.1035  163.8176 C.3     1  UNL1        0.0521
     25 C         145.3827  142.5210  164.2089 C.3     1  UNL1        0.0333
@<TRIPOS>BOND
     1    13    14    1
     2    14     6    1
     3     6     7   ar
     4     7     8   ar
     5     8     9   ar
     6     9     4    1
     7     4     5    2
     8     5     3    1
     9     3     1    1
    10     1     2    1
    11     1    15    1
    12    15    16    1
    13    16    17   ar
    14    17    18   ar
    15    18    19   ar
    16    19    20   ar
    17    20    21   ar
    18    20    22    1
    19    22    23    1
    20    23    24    1
    21    24    25    1
    22     9    10   ar
    23    10    11    1
    24    10    12   ar
    25    12     6   ar
    26    21    16   ar
    27    25    19    1
@<TRIPOS>MOLECULE
*****
 25 27 0 0 0
SMALL
GASTEIGER

@<TRIPOS>ATOM
      1 N         140.6715  141.4757  169.4408 N.3     1  UNL1       -0.2639
      2 C         140.3789  142.9171  169.7353 C.3     1  UNL1        0.0902
      3 C         139.5443  140.4995  169.2786 C.3     1  UNL1        0.0992
      4 C         139.3887  140.6191  166.6880 C.2     1  UNL1       -0.0010
      5 C         139.3212  139.8239  167.9581 C.2     1  UNL1       -0.0087
      6 C         138.7196  138.5921  162.7265 C.ar    1  UNL1        0.1410
      7 C         139.5943  137.9474  163.7605 C.ar    1  UNL1        0.0370
      8 C         139.8173  138.6231  165.0810 C.ar    1  UNL1        0.0053
      9 C         139.1656  139.9434  165.3674 C.ar    1  UNL1        0.0274
     10 C         138.2910  140.5881  164.3334 C.ar    1  UNL1        0.1431
     11 F         137.6393  141.9084  164.6198 F       1  UNL1       -0.2041
     12 C         138.0680  139.9124  163.0129 C.ar    1  UNL1        0.0665
     13 C         139.2581  138.3672  160.1948 C.3     1  UNL1        0.2525
     14 O         138.4966  137.9164  161.4059 O.3     1  UNL1       -0.4714
     15 C         142.0914  141.0106  169.3083 C.3     1  UNL1        0.0995
     16 C         142.6214  140.5909  167.9692 C.ar    1  UNL1       -0.0031
     17 C         142.8443  139.1375  167.6728 C.ar    1  UNL1       -0.0030
     18 C         143.3743  138.7179  166.3338 C.ar    1  UNL1       -0.0016
     19 C         143.6813  139.7517  165.2911 C.ar    1  UNL1        0.0119
     20 C         143.4583  141.2051  165.5875 C.ar    1  UNL1        0.1342
     21 C         142.9283  141.6247  166.9266 C.ar    1  UNL1        0.0337
     22 O         143.7653  142.2389  164.5449 O.3     1  UNL1       -0.4758
     23 C         144.2952  141.8192  163.2059 C.3     1  UNL1        0.2057
     24 C         144.5182  140.3658  162.9095 C.3     1  UNL1        0.0521
     25 C         144.2112  139.3320  163.9521 C.3     1  UNL1        0.0333
@<TRIPOS>BOND
     1    13    14    1
     2    14     6    1
     3     6     7   ar
     4     7     8   ar
     5     8     9   ar
     6     9     4    1
     7     4     5    2
     8     5     3    1
     9     3     1    1
    10     1     2    1
    11     1    15    1
    12    15    16    1
    13    16    17   ar
    14    17    18   ar
    15    18    19   ar
    16    19    20   ar
    17    20    21   ar
    18    20    22    1
    19    22    23    1
    20    23    24    1
    21    24    25    1
    22     9    10   ar
    23    10    11    1
    24    10    12   ar
    25    12     6   ar
    26    21    16   ar
    27    25    19    1
@<TRIPOS>MOLECULE
*****
 25 27 0 0 0
SMALL
GASTEIGER

@<TRIPOS>ATOM
      1 N         141.5086  141.6930  169.0990 N.3     1  UNL1       -0.2639
      2 C         142.9413  141.7600  169.5382 C.3     1  UNL1        0.0902
      3 C         140.7960  142.9418  168.6713 C.3     1  UNL1        0.0992
      4 C         140.8445  143.0147  166.0748 C.2     1  UNL1       -0.0010
      5 C         140.0704  142.9792  167.3591 C.2     1  UNL1       -0.0087
      6 C         138.6675  143.1269  162.1380 C.ar    1  UNL1        0.1410
      7 C         139.5985  141.9925  162.4481 C.ar    1  UNL1        0.0370
      8 C         140.3242  141.9551  163.7603 C.ar    1  UNL1        0.0053
      9 C         140.1188  143.0521  164.7625 C.ar    1  UNL1        0.0274
     10 C         139.1878  144.1866  164.4524 C.ar    1  UNL1        0.1431
     11 F         138.9824  145.2836  165.4546 F       1  UNL1       -0.2041
     12 C         138.4621  144.2239  163.1402 C.ar    1  UNL1        0.0665
     13 C         138.4646  142.3828  159.6571 C.3     1  UNL1        0.2525
     14 O         137.9418  143.1643  160.8257 O.3     1  UNL1       -0.4714
     15 C         140.7885  140.3773  169.0875 C.3     1  UNL1        0.0995
     16 C         140.3547  139.7710  167.7858 C.ar    1  UNL1       -0.0031
     17 C         138.8992  139.5210  167.5231 C.ar    1  UNL1       -0.0030
     18 C         138.4653  138.9148  166.2214 C.ar    1  UNL1       -0.0016
     19 C         139.4870  138.5586  165.1825 C.ar    1  UNL1        0.0119
     20 C         140.9425  138.8086  165.4452 C.ar    1  UNL1        0.1342
     21 C         141.3763  139.4148  166.7469 C.ar    1  UNL1        0.0337
     22 O         141.9642  138.4524  164.4063 O.3     1  UNL1       -0.4758
     23 C         141.5303  137.8462  163.1047 C.3     1  UNL1        0.2057
     24 C         140.0748  137.5962  162.8420 C.3     1  UNL1        0.0521
     25 C         139.0532  137.9524  163.8809 C.3     1  UNL1        0.0333
@<TRIPOS>BOND
     1    13    14    1
     2    14     6    1
     3     6     7   ar
     4     7     8   ar
     5     8     9   ar
     6     9     4    1
     7     4     5    2
     8     5     3    1
     9     3     1    1
    10     1     2    1
    11     1    15    1
    12    15    16    1
    13    16    17   ar
    14    17    18   ar
    15    18    19   ar
    16    19    20   ar
    17    20    21   ar
    18    20    22    1
    19    22    23    1
    20    23    24    1
    21    24    25    1
    22     9    10   ar
    23    10    11    1
    24    10    12   ar
    25    12     6   ar
    26    21    16   ar
    27    25    19    1
@<TRIPOS>MOLECULE
*****
 25 27 0 0 0
SMALL
GASTEIGER

@<TRIPOS>ATOM
      1 N         138.7075  143.7807  161.8272 N.3     1  UNL1       -0.2639
      2 C         138.5460  142.8638  160.6511 C.3     1  UNL1        0.0902
      3 C         137.6902  143.7730  162.9295 C.3     1  UNL1        0.0992
      4 C         139.0520  142.0794  164.3532 C.2     1  UNL1       -0.0010
      5 C         138.0329  143.1763  164.2623 C.2     1  UNL1       -0.0087
      6 C         140.0804  140.2895  168.3517 C.ar    1  UNL1        0.1410
      7 C         140.6862  141.5976  167.9375 C.ar    1  UNL1        0.0370
      8 C         140.3434  142.1942  166.6047 C.ar    1  UNL1        0.0053
      9 C         139.3948  141.4827  165.6861 C.ar    1  UNL1        0.0274
     10 C         138.7890  140.1746  166.1003 C.ar    1  UNL1        0.1431
     11 F         137.8403  139.4630  165.1817 F       1  UNL1       -0.2041
     12 C         139.1317  139.5779  167.4331 C.ar    1  UNL1        0.0665
     13 C         141.8204  139.8034  170.2188 C.3     1  UNL1        0.2525
     14 O         140.4231  139.6928  169.6846 O.3     1  UNL1       -0.4714
     15 C         139.8862  144.7053  161.9009 C.3     1  UNL1        0.0995
     16 C         141.1639  144.2426  162.5361 C.ar    1  UNL1       -0.0031
     17 C         141.8054  145.0636  163.6152 C.ar    1  UNL1       -0.0030
     18 C         143.0830  144.6009  164.2503 C.ar    1  UNL1       -0.0016
     19 C         143.7193  143.3170  163.8065 C.ar    1  UNL1        0.0119
     20 C         143.0778  142.4959  162.7275 C.ar    1  UNL1        0.1342
     21 C         141.8001  142.9587  162.0923 C.ar    1  UNL1        0.0337
     22 O         143.7140  141.2121  162.2836 O.3     1  UNL1       -0.4758
     23 C         144.9916  140.7494  162.9188 C.3     1  UNL1        0.2057
     24 C         145.6330  141.5705  163.9978 C.3     1  UNL1        0.0521
     25 C         144.9969  142.8543  164.4417 C.3     1  UNL1        0.0333
@<TRIPOS>BOND
     1    13    14    1
     2    14     6    1
     3     6     7   ar
     4     7     8   ar
     5     8     9   ar
     6     9     4    1
     7     4     5    2
     8     5     3    1
     9     3     1    1
    10     1     2    1
    11     1    15    1
    12    15    16    1
    13    16    17   ar
    14    17    18   ar
    15    18    19   ar
    16    19    20   ar
    17    20    21   ar
    18    20    22    1
    19    22    23    1
    20    23    24    1
    21    24    25    1
    22     9    10   ar
    23    10    11    1
    24    10    12   ar
    25    12     6   ar
    26    21    16   ar
    27    25    19    1
@<TRIPOS>MOLECULE
*****
 25 27 0 0 0
SMALL
GASTEIGER

@<TRIPOS>ATOM
      1 N         138.6797  138.4854  161.8484 N.3     1  UNL1       -0.2639
      2 C         139.5774  138.0796  160.7173 C.3     1  UNL1        0.0902
      3 C         138.8276  137.8371  163.1929 C.3     1  UNL1        0.0992
      4 C         138.5614  139.3665  165.2762 C.2     1  UNL1       -0.0010
      5 C         139.4383  138.6005  164.3305 C.2     1  UNL1       -0.0087
      6 C         140.3936  141.6566  168.6891 C.ar    1  UNL1        0.1410
      7 C         139.5872  140.4216  168.9619 C.ar    1  UNL1        0.0370
      8 C         138.9765  139.6583  167.8243 C.ar    1  UNL1        0.0053
      9 C         139.1722  140.1299  166.4138 C.ar    1  UNL1        0.0274
     10 C         139.9786  141.3649  166.1411 C.ar    1  UNL1        0.1431
     11 F         140.1743  141.8365  164.7307 F       1  UNL1       -0.2041
     12 C         140.5893  142.1282  167.2787 C.ar    1  UNL1        0.0665
     13 C         140.9325  141.8727  171.2215 C.3     1  UNL1        0.2525
     14 O         141.0044  142.4200  169.8268 O.3     1  UNL1       -0.4714
     15 C         137.6342  139.5395  161.6349 C.3     1  UNL1        0.0995
     16 C         137.9513  140.9784  161.9164 C.ar    1  UNL1       -0.0031
     17 C         137.3079  141.6745  163.0790 C.ar    1  UNL1       -0.0030
     18 C         137.6250  143.1133  163.3605 C.ar    1  UNL1       -0.0016
     19 C         138.5854  143.8560  162.4795 C.ar    1  UNL1        0.0119
     20 C         139.2287  143.1598  161.3170 C.ar    1  UNL1        0.1342
     21 C         138.9116  141.7210  161.0355 C.ar    1  UNL1        0.0337
     22 O         140.1891  143.9024  160.4360 O.3     1  UNL1       -0.4758
     23 C         140.5062  145.3412  160.7176 C.3     1  UNL1        0.2057
     24 C         139.8628  146.0374  161.8801 C.3     1  UNL1        0.0521
     25 C         138.9025  145.2948  162.7611 C.3     1  UNL1        0.0333
@<TRIPOS>BOND
     1    13    14    1
     2    14     6    1
     3     6     7   ar
     4     7     8   ar
     5     8     9   ar
     6     9     4    1
     7     4     5    2
     8     5     3    1
     9     3     1    1
    10     1     2    1
    11     1    15    1
    12    15    16    1
    13    16    17   ar
    14    17    18   ar
    15    18    19   ar
    16    19    20   ar
    17    20    21   ar
    18    20    22    1
    19    22    23    1
    20    23    24    1
    21    24    25    1
    22     9    10   ar
    23    10    11    1
    24    10    12   ar
    25    12     6   ar
    26    21    16   ar
    27    25    19    1
@<TRIPOS>MOLECULE
*****
 25 27 0 0 0
SMALL
GASTEIGER

@<TRIPOS>ATOM
      1 N         142.1596  140.8125  168.5769 N.3     1  UNL1       -0.2639
      2 C         142.9936  142.0422  168.7825 C.3     1  UNL1        0.0902
      3 C         142.8223  139.4841  168.3620 C.3     1  UNL1        0.0992
      4 C         142.8149  139.7590  165.7785 C.2     1  UNL1       -0.0010
      5 C         142.8580  138.8768  166.9909 C.2     1  UNL1       -0.0087
      6 C         142.9219  137.9370  161.6653 C.ar    1  UNL1        0.1410
      7 C         141.6712  137.8555  162.4893 C.ar    1  UNL1        0.0370
      8 C         141.6355  138.4629  163.8604 C.ar    1  UNL1        0.0053
      9 C         142.8506  139.1516  164.4074 C.ar    1  UNL1        0.0274
     10 C         144.1013  139.2331  163.5834 C.ar    1  UNL1        0.1431
     11 F         145.3163  139.9219  164.1304 F       1  UNL1       -0.2041
     12 C         144.1369  138.6258  162.2124 C.ar    1  UNL1        0.0665
     13 C         142.6348  138.1688  159.0936 C.3     1  UNL1        0.2525
     14 O         142.9576  137.3296  160.2942 O.3     1  UNL1       -0.4714
     15 C         140.6629  140.9112  168.5862 C.3     1  UNL1        0.0995
     16 C         139.9014  140.8840  167.2941 C.ar    1  UNL1       -0.0031
     17 C         139.0901  139.6769  166.9271 C.ar    1  UNL1       -0.0030
     18 C         138.3286  139.6496  165.6351 C.ar    1  UNL1       -0.0016
     19 C         138.3784  140.8294  164.7100 C.ar    1  UNL1        0.0119
     20 C         139.1898  142.0364  165.0770 C.ar    1  UNL1        0.1342
     21 C         139.9513  142.0637  166.3691 C.ar    1  UNL1        0.0337
     22 O         139.2397  143.2162  164.1520 O.3     1  UNL1       -0.4758
     23 C         138.4782  143.1889  162.8600 C.3     1  UNL1        0.2057
     24 C         137.6668  141.9818  162.4930 C.3     1  UNL1        0.0521
     25 C         137.6170  140.8021  163.4180 C.3     1  UNL1        0.0333
@<TRIPOS>BOND
     1    13    14    1
     2    14     6    1
     3     6     7   ar
     4     7     8   ar
     5     8     9   ar
     6     9     4    1
     7     4     5    2
     8     5     3    1
     9     3     1    1
    10     1     2    1
    11     1    15    1
    12    15    16    1
    13    16    17   ar
    14    17    18   ar
    15    18    19   ar
    16    19    20   ar
    17    20    21   ar
    18    20    22    1
    19    22    23    1
    20    23    24    1
    21    24    25    1
    22     9    10   ar
    23    10    11    1
    24    10    12   ar
    25    12     6   ar
    26    21    16   ar
    27    25    19    1
@<TRIPOS>MOLECULE
*****
 25 27 0 0 0
SMALL
GASTEIGER

@<TRIPOS>ATOM
      1 N         141.0329  137.7504  162.1074 N.3     1  UNL1       -0.2639
      2 C         142.2544  137.7416  161.2370 C.3     1  UNL1        0.0902
      3 C         141.0370  137.0120  163.4131 C.3     1  UNL1        0.0992
      4 C         141.8315  138.9179  164.9899 C.2     1  UNL1       -0.0010
      5 C         140.9122  137.7680  164.7026 C.2     1  UNL1       -0.0087
      6 C         141.4569  141.1858  168.8585 C.ar    1  UNL1        0.1410
      7 C         140.5571  141.5169  167.7049 C.ar    1  UNL1        0.0370
      8 C         140.6820  140.7609  166.4154 C.ar    1  UNL1        0.0053
      9 C         141.7067  139.6739  166.2795 C.ar    1  UNL1        0.0274
     10 C         142.6064  139.3429  167.4331 C.ar    1  UNL1        0.1431
     11 F         143.6311  138.2559  167.2971 F       1  UNL1       -0.2041
     12 C         142.4815  140.0988  168.7226 C.ar    1  UNL1        0.0665
     13 C         140.0026  142.4963  170.5667 C.3     1  UNL1        0.2525
     14 O         141.3320  141.9418  170.1481 O.3     1  UNL1       -0.4714
     15 C         139.8072  138.4975  161.6722 C.3     1  UNL1        0.0995
     16 C         139.3922  139.7441  162.3960 C.ar    1  UNL1       -0.0031
     17 C         138.0991  139.7750  163.1557 C.ar    1  UNL1       -0.0030
     18 C         137.6840  141.0215  163.8795 C.ar    1  UNL1       -0.0016
     19 C         138.5621  142.2372  163.8436 C.ar    1  UNL1        0.0119
     20 C         139.8551  142.2063  163.0840 C.ar    1  UNL1        0.1342
     21 C         140.2702  140.9597  162.3602 C.ar    1  UNL1        0.0337
     22 O         140.7332  143.4219  163.0482 O.3     1  UNL1       -0.4758
     23 C         140.3181  144.6684  163.7720 C.3     1  UNL1        0.2057
     24 C         139.0251  144.6993  164.5316 C.3     1  UNL1        0.0521
     25 C         138.1470  143.4837  164.5674 C.3     1  UNL1        0.0333
@<TRIPOS>BOND
     1    13    14    1
     2    14     6    1
     3     6     7   ar
     4     7     8   ar
     5     8     9   ar
     6     9     4    1
     7     4     5    2
     8     5     3    1
     9     3     1    1
    10     1     2    1
    11     1    15    1
    12    15    16    1
    13    16    17   ar
    14    17    18   ar
    15    18    19   ar
    16    19    20   ar
    17    20    21   ar
    18    20    22    1
    19    22    23    1
    20    23    24    1
    21    24    25    1
    22     9    10   ar
    23    10    11    1
    24    10    12   ar
    25    12     6   ar
    26    21    16   ar
    27    25    19    1
@<TRIPOS>MOLECULE
*****
 25 27 0 0 0
SMALL
GASTEIGER

@<TRIPOS>ATOM
      1 N         140.4345  140.4879  168.6483 N.3     1  UNL1       -0.2639
      2 C         140.0437  141.6644  169.4927 C.3     1  UNL1        0.0902
      3 C         139.3914  139.7471  167.8653 C.3     1  UNL1        0.0992
      4 C         139.4625  141.5271  165.9741 C.2     1  UNL1       -0.0010
      5 C         139.0735  140.1621  166.4594 C.2     1  UNL1       -0.0087
      6 C         138.5089  142.7719  161.7562 C.ar    1  UNL1        0.1410
      7 C         137.7528  143.3718  162.9043 C.ar    1  UNL1        0.0370
      8 C         138.0706  142.9569  164.3103 C.ar    1  UNL1        0.0053
      9 C         139.1447  141.9420  164.5681 C.ar    1  UNL1        0.0274
     10 C         139.9009  141.3421  163.4199 C.ar    1  UNL1        0.1431
     11 F         140.9749  140.3272  163.6778 F       1  UNL1       -0.2041
     12 C         139.5830  141.7570  162.0140 C.ar    1  UNL1        0.0665
     13 C         138.4874  142.2592  159.2093 C.3     1  UNL1        0.2525
     14 O         138.1911  143.1868  160.3501 O.3     1  UNL1       -0.4714
     15 C         141.8685  140.0522  168.5869 C.3     1  UNL1        0.0995
     16 C         142.6137  140.1060  167.2862 C.ar    1  UNL1       -0.0031
     17 C         143.0721  138.8367  166.6314 C.ar    1  UNL1       -0.0030
     18 C         143.8173  138.8905  165.3307 C.ar    1  UNL1       -0.0016
     19 C         144.1041  140.2136  164.6848 C.ar    1  UNL1        0.0119
     20 C         143.6457  141.4829  165.3396 C.ar    1  UNL1        0.1342
     21 C         142.9005  141.4291  166.6403 C.ar    1  UNL1        0.0337
     22 O         143.9325  142.8060  164.6937 O.3     1  UNL1       -0.4758
     23 C         144.6776  142.8598  163.3931 C.3     1  UNL1        0.2057
     24 C         145.1361  141.5905  162.7383 C.3     1  UNL1        0.0521
     25 C         144.8493  140.2674  163.3841 C.3     1  UNL1        0.0333
@<TRIPOS>BOND
     1    13    14    1
     2    14     6    1
     3     6     7   ar
     4     7     8   ar
     5     8     9   ar
     6     9     4    1
     7     4     5    2
     8     5     3    1
     9     3     1    1
    10     1     2    1
    11     1    15    1
    12    15    16    1
    13    16    17   ar
    14    17    18   ar
    15    18    19   ar
    16    19    20   ar
    17    20    21   ar
    18    20    22    1
    19    22    23    1
    20    23    24    1
    21    24    25    1
    22     9    10   ar
    23    10    11    1
    24    10    12   ar
    25    12     6   ar
    26    21    16   ar
    27    25    19    1
@<TRIPOS>MOLECULE
*****
 25 27 0 0 0
SMALL
GASTEIGER

@<TRIPOS>ATOM
      1 N         138.9785  138.2908  162.1477 N.3     1  UNL1       -0.2639
      2 C         137.7003  138.6773  161.4646 C.3     1  UNL1        0.0902
      3 C         138.9644  137.8863  163.5920 C.3     1  UNL1        0.0992
      4 C         140.5016  138.8781  165.4368 C.2     1  UNL1       -0.0010
      5 C         139.2189  138.9086  164.6597 C.2     1  UNL1       -0.0087
      6 C         141.2652  141.9452  168.6399 C.ar    1  UNL1        0.1410
      7 C         142.2108  141.8182  167.4824 C.ar    1  UNL1        0.0370
      8 C         141.9563  140.7958  166.4148 C.ar    1  UNL1        0.0053
      9 C         140.7562  139.9005  166.5045 C.ar    1  UNL1        0.0274
     10 C         139.8106  140.0275  167.6619 C.ar    1  UNL1        0.1431
     11 F         138.6104  139.1321  167.7517 F       1  UNL1       -0.2041
     12 C         140.0651  141.0498  168.7296 C.ar    1  UNL1        0.0665
     13 C         140.5264  144.0658  169.9465 C.3     1  UNL1        0.2525
     14 O         141.5198  142.9675  169.7076 O.3     1  UNL1       -0.4714
     15 C         140.2708  138.3088  161.3864 C.3     1  UNL1        0.0995
     16 C         141.4962  138.9156  162.0032 C.ar    1  UNL1       -0.0031
     17 C         142.6403  138.0383  162.4171 C.ar    1  UNL1       -0.0030
     18 C         143.8657  138.6450  163.0338 C.ar    1  UNL1       -0.0016
     19 C         143.9470  140.1290  163.2366 C.ar    1  UNL1        0.0119
     20 C         142.8028  141.0063  162.8227 C.ar    1  UNL1        0.1342
     21 C         141.5774  140.3995  162.2060 C.ar    1  UNL1        0.0337
     22 O         142.8840  142.4903  163.0255 O.3     1  UNL1       -0.4758
     23 C         144.1094  143.0970  163.6422 C.3     1  UNL1        0.2057
     24 C         145.2535  142.2197  164.0561 C.3     1  UNL1        0.0521
     25 C         145.1723  140.7357  163.8533 C.3     1  UNL1        0.0333
@<TRIPOS>BOND
     1    13    14    1
     2    14     6    1
     3     6     7   ar
     4     7     8   ar
     5     8     9   ar
     6     9     4    1
     7     4     5    2
     8     5     3    1
     9     3     1    1
    10     1     2    1
    11     1    15    1
    12    15    16    1
    13    16    17   ar
    14    17    18   ar
    15    18    19   ar
    16    19    20   ar
    17    20    21   ar
    18    20    22    1
    19    22    23    1
    20    23    24    1
    21    24    25    1
    22     9    10   ar
    23    10    11    1
    24    10    12   ar
    25    12     6   ar
    26    21    16   ar
    27    25    19    1
