@<TRIPOS>MOLECULE
*****
 34 37 0 0 0
SMALL
GASTEIGER

@<TRIPOS>ATOM
      1 N         140.8656  138.2027  164.4955 N.3     1  UNL1       -0.2680
      2 C         142.0006  138.4643  165.4407 C.3     1  UNL1        0.0897
      3 C         143.3093  138.9772  164.9171 C.3     1  UNL1        0.0897
      4 N         143.4831  139.2283  163.4486 N.3     1  UNL1       -0.2679
      5 C         142.3481  138.9667  162.5035 C.3     1  UNL1        0.0897
      6 C         141.0393  138.4538  163.0269 C.3     1  UNL1        0.0897
      7 C         139.5568  137.6898  165.0190 C.3     1  UNL1        0.1064
      8 C         138.5180  138.6522  165.5138 C.3     1  UNL1        0.1483
      9 O         137.5401  138.2240  166.5675 O.3     1  UNL1       -0.3786
     10 H         136.9423  138.9600  166.7720 H       1  UNL1        0.2108
     11 C         139.8543  140.9122  166.9654 C.3     1  UNL1        0.0306
     12 C         139.1253  141.1729  165.6806 C.ar    1  UNL1       -0.0238
     13 C         138.4571  140.0429  164.9547 C.ar    1  UNL1        0.0015
     14 C         137.7282  140.3036  163.6700 C.ar    1  UNL1       -0.0020
     15 C         137.6673  141.6942  163.1111 C.ar    1  UNL1        0.0060
     16 C         138.3354  142.8241  163.8368 C.ar    1  UNL1        0.0748
     17 C         139.0644  142.5635  165.1216 C.ar    1  UNL1        0.0233
     18 C         139.6231  143.8670  165.6103 C.3     1  UNL1        0.2352
     19 O         139.2394  144.9332  164.6275 O.3     1  UNL1       -0.4404
     20 C         138.4435  144.2887  163.5314 C.2     1  UNL1        0.3413
     21 O         137.8586  144.9864  162.3393 O.2     1  UNL1       -0.2449
     22 C         144.7919  139.7412  162.9251 C.3     1  UNL1        0.1080
     23 C         145.0462  141.2180  162.8583 C.3     1  UNL1        0.1669
     24 O         146.3349  141.7814  163.3795 O.3     1  UNL1       -0.3771
     25 H         146.8873  141.0616  163.7224 H       1  UNL1        0.2109
     26 C         144.0118  142.1312  162.2702 C.ar    1  UNL1        0.0976
     27 N         143.9688  142.3600  160.7883 N.ar    1  UNL1       -0.2442
     28 C         142.9344  143.2732  160.2002 C.ar    1  UNL1        0.1088
     29 C         141.9430  143.9577  161.0938 C.ar    1  UNL1        0.0884
     30 C         141.9860  143.7289  162.5756 C.ar    1  UNL1        0.0245
     31 C         143.0204  142.8157  163.1638 C.ar    1  UNL1        0.0743
     32 CL        143.0634  142.5869  164.6457 Cl      1  UNL1       -0.0809
     33 C         140.9085  144.8710  160.5057 C.1     1  UNL1        0.1020
     34 N         139.8740  145.7844  159.9177 N.1     1  UNL1       -0.1908
@<TRIPOS>BOND
     1    11    12    1
     2    12    13   ar
     3    13     8    1
     4     8     9    1
     5     8     7    1
     6     7     1    1
     7     1     2    1
     8     2     3    1
     9     3     4    1
    10     4    22    1
    11    22    23    1
    12    23    24    1
    13    23    26    1
    14    26    27   ar
    15    27    28   ar
    16    28    29   ar
    17    29    33    1
    18    33    34    3
    19    29    30   ar
    20    30    31   ar
    21    31    32    1
    22     4     5    1
    23     5     6    1
    24    13    14   ar
    25    14    15   ar
    26    15    16   ar
    27    16    17   ar
    28    17    18    1
    29    18    19    1
    30    19    20    1
    31    20    21    2
    32    17    12   ar
    33     6     1    1
    34    20    16    1
    35    31    26   ar
    36     9    10    1
    37    24    25    1
@<TRIPOS>MOLECULE
*****
 34 37 0 0 0
SMALL
GASTEIGER

@<TRIPOS>ATOM
      1 N         140.4864  142.8110  161.1732 N.3     1  UNL1       -0.2680
      2 C         140.0581  141.6784  160.2878 C.3     1  UNL1        0.0897
      3 C         141.0027  140.5477  160.0068 C.3     1  UNL1        0.0897
      4 N         142.3756  140.5495  160.6110 N.3     1  UNL1       -0.2679
      5 C         142.8039  141.6820  161.4964 C.3     1  UNL1        0.0897
      6 C         141.8594  142.8128  161.7775 C.3     1  UNL1        0.0897
      7 C         139.5418  143.9418  161.4543 C.3     1  UNL1        0.1064
      8 C         138.4614  143.7787  162.4820 C.3     1  UNL1        0.1483
      9 O         137.3825  144.8132  162.6066 O.3     1  UNL1       -0.3786
     10 H         136.7691  144.5572  163.3131 H       1  UNL1        0.2108
     11 C         139.9957  143.8416  165.0593 C.3     1  UNL1        0.0306
     12 C         139.2272  142.6124  164.6738 C.ar    1  UNL1       -0.0238
     13 C         138.4600  142.5809  163.3851 C.ar    1  UNL1        0.0015
     14 C         137.6916  141.3518  162.9996 C.ar    1  UNL1       -0.0020
     15 C         137.6902  140.1542  163.9027 C.ar    1  UNL1        0.0060
     16 C         138.4572  140.1856  165.1913 C.ar    1  UNL1        0.0748
     17 C         139.2257  141.4148  165.5769 C.ar    1  UNL1        0.0233
     18 C         139.8837  141.1543  166.8995 C.3     1  UNL1        0.2352
     19 O         139.5218  139.7641  167.3313 O.3     1  UNL1       -0.4404
     20 C         138.6402  139.1655  166.2757 C.2     1  UNL1        0.3413
     21 O         138.0459  137.7884  166.3001 O.2     1  UNL1       -0.2449
     22 C         143.3202  139.4187  160.3299 C.3     1  UNL1        0.1080
     23 C         143.3561  138.2272  161.2406 C.3     1  UNL1        0.1669
     24 O         143.4863  136.8478  160.6660 O.3     1  UNL1       -0.3771
     25 H         143.5350  136.9037  159.6988 H       1  UNL1        0.2109
     26 C         143.2617  138.4153  162.7257 C.ar    1  UNL1        0.0976
     27 N         144.4166  139.0017  163.4823 N.ar    1  UNL1       -0.2442
     28 C         144.3223  139.1898  164.9674 C.ar    1  UNL1        0.1088
     29 C         143.0731  138.7915  165.6960 C.ar    1  UNL1        0.0884
     30 C         141.9183  138.2051  164.9395 C.ar    1  UNL1        0.0245
     31 C         142.0125  138.0170  163.4543 C.ar    1  UNL1        0.0743
     32 CL        140.8577  137.4305  162.6978 Cl      1  UNL1       -0.0809
     33 C         142.9787  138.9795  167.1813 C.1     1  UNL1        0.1020
     34 N         142.8844  139.1676  168.6664 N.1     1  UNL1       -0.1908
@<TRIPOS>BOND
     1    11    12    1
     2    12    13   ar
     3    13     8    1
     4     8     9    1
     5     8     7    1
     6     7     1    1
     7     1     2    1
     8     2     3    1
     9     3     4    1
    10     4    22    1
    11    22    23    1
    12    23    24    1
    13    23    26    1
    14    26    27   ar
    15    27    28   ar
    16    28    29   ar
    17    29    33    1
    18    33    34    3
    19    29    30   ar
    20    30    31   ar
    21    31    32    1
    22     4     5    1
    23     5     6    1
    24    13    14   ar
    25    14    15   ar
    26    15    16   ar
    27    16    17   ar
    28    17    18    1
    29    18    19    1
    30    19    20    1
    31    20    21    2
    32    17    12   ar
    33     6     1    1
    34    20    16    1
    35    31    26   ar
    36     9    10    1
    37    24    25    1
@<TRIPOS>MOLECULE
*****
 34 37 0 0 0
SMALL
GASTEIGER

@<TRIPOS>ATOM
      1 N         139.1257  139.6004  161.7501 N.3     1  UNL1       -0.2680
      2 C         138.1278  140.7081  161.9150 C.3     1  UNL1        0.0897
      3 C         138.3535  142.0277  161.2385 C.3     1  UNL1        0.0897
      4 N         139.5771  142.2396  160.3971 N.3     1  UNL1       -0.2679
      5 C         140.5750  141.1319  160.2322 C.3     1  UNL1        0.0897
      6 C         140.3494  139.8123  160.9087 C.3     1  UNL1        0.0897
      7 C         138.9000  138.2808  162.4266 C.3     1  UNL1        0.1064
      8 C         139.8025  137.8464  163.5432 C.3     1  UNL1        0.1483
      9 O         140.8564  136.8082  163.2951 O.3     1  UNL1       -0.3786
     10 H         141.3479  136.6441  164.1150 H       1  UNL1        0.2108
     11 C         142.0108  139.5168  164.6978 C.3     1  UNL1        0.0306
     12 C         140.7553  139.2854  165.4853 C.ar    1  UNL1       -0.0238
     13 C         139.6511  138.4501  164.9080 C.ar    1  UNL1        0.0015
     14 C         138.3956  138.2187  165.6954 C.ar    1  UNL1       -0.0020
     15 C         138.2442  138.8224  167.0602 C.ar    1  UNL1        0.0060
     16 C         139.3483  139.6576  167.6375 C.ar    1  UNL1        0.0748
     17 C         140.6038  139.8891  166.8501 C.ar    1  UNL1        0.0233
     18 C         141.5150  140.7508  167.6731 C.3     1  UNL1        0.2352
     19 O         140.8225  141.0518  168.9692 O.3     1  UNL1       -0.4404
     20 C         139.4834  140.3762  168.9472 C.2     1  UNL1        0.3413
     21 O         138.4593  140.4128  170.0426 O.2     1  UNL1       -0.2449
     22 C         139.8028  143.5592  159.7207 C.3     1  UNL1        0.1080
     23 C         140.2072  144.7568  160.5284 C.3     1  UNL1        0.1669
     24 O         139.6105  146.0999  160.2285 O.3     1  UNL1       -0.3771
     25 H         138.9872  146.0191  159.4897 H       1  UNL1        0.2109
     26 C         141.2082  144.6111  161.6360 C.ar    1  UNL1        0.0976
     27 N         142.6538  144.3735  161.3138 N.ar    1  UNL1       -0.2442
     28 C         143.6549  144.2278  162.4213 C.ar    1  UNL1        0.1088
     29 C         143.2104  144.3197  163.8509 C.ar    1  UNL1        0.0884
     30 C         141.7648  144.5574  164.1731 C.ar    1  UNL1        0.0245
     31 C         140.7637  144.7031  163.0656 C.ar    1  UNL1        0.0743
     32 CL        139.3181  144.9407  163.3878 Cl      1  UNL1       -0.0809
     33 C         144.2114  144.1741  164.9586 C.1     1  UNL1        0.1020
     34 N         145.2124  144.0283  166.0662 N.1     1  UNL1       -0.1908
@<TRIPOS>BOND
     1    11    12    1
     2    12    13   ar
     3    13     8    1
     4     8     9    1
     5     8     7    1
     6     7     1    1
     7     1     2    1
     8     2     3    1
     9     3     4    1
    10     4    22    1
    11    22    23    1
    12    23    24    1
    13    23    26    1
    14    26    27   ar
    15    27    28   ar
    16    28    29   ar
    17    29    33    1
    18    33    34    3
    19    29    30   ar
    20    30    31   ar
    21    31    32    1
    22     4     5    1
    23     5     6    1
    24    13    14   ar
    25    14    15   ar
    26    15    16   ar
    27    16    17   ar
    28    17    18    1
    29    18    19    1
    30    19    20    1
    31    20    21    2
    32    17    12   ar
    33     6     1    1
    34    20    16    1
    35    31    26   ar
    36     9    10    1
    37    24    25    1
@<TRIPOS>MOLECULE
*****
 34 37 0 0 0
SMALL
GASTEIGER

@<TRIPOS>ATOM
      1 N         137.7793  142.8897  163.2197 N.3     1  UNL1       -0.2680
      2 C         138.1412  143.0630  161.7744 C.3     1  UNL1        0.0897
      3 C         138.3475  141.8593  160.9035 C.3     1  UNL1        0.0897
      4 N         138.1920  140.4824  161.4778 N.3     1  UNL1       -0.2679
      5 C         137.8301  140.3091  162.9232 C.3     1  UNL1        0.0897
      6 C         137.6237  141.5128  163.7942 C.3     1  UNL1        0.0897
      7 C         137.5729  144.0934  164.0907 C.3     1  UNL1        0.1064
      8 C         138.6881  144.5875  164.9637 C.3     1  UNL1        0.1483
      9 O         138.4093  145.5979  166.0367 O.3     1  UNL1       -0.3786
     10 H         139.2325  145.8079  166.5049 H       1  UNL1        0.2108
     11 C         140.4131  145.7289  162.7907 C.3     1  UNL1        0.0306
     12 C         140.9448  144.6418  163.6772 C.ar    1  UNL1       -0.0238
     13 C         140.0822  144.0711  164.7637 C.ar    1  UNL1        0.0015
     14 C         140.6138  142.9842  165.6502 C.ar    1  UNL1       -0.0020
     15 C         142.0078  142.4678  165.4502 C.ar    1  UNL1        0.0060
     16 C         142.8703  143.0385  164.3638 C.ar    1  UNL1        0.0748
     17 C         142.3388  144.1255  163.4773 C.ar    1  UNL1        0.0233
     18 C         143.4136  144.4912  162.4969 C.3     1  UNL1        0.2352
     19 O         144.6094  143.6303  162.7776 O.3     1  UNL1       -0.4404
     20 C         144.2737  142.7324  163.9314 C.2     1  UNL1        0.3413
     21 O         145.1818  141.7083  164.5449 O.2     1  UNL1       -0.2449
     22 C         138.3983  139.2788  160.6068 C.3     1  UNL1        0.1080
     23 C         139.7433  138.6171  160.5480 C.3     1  UNL1        0.1669
     24 O         140.2534  138.0693  159.2481 O.3     1  UNL1       -0.3771
     25 H         139.5961  138.2243  158.5518 H       1  UNL1        0.2109
     26 C         140.5780  138.5033  161.7891 C.ar    1  UNL1        0.0976
     27 N         140.3949  137.3347  162.7114 N.ar    1  UNL1       -0.2442
     28 C         141.2296  137.2207  163.9525 C.ar    1  UNL1        0.1088
     29 C         142.2474  138.2755  164.2712 C.ar    1  UNL1        0.0884
     30 C         142.4305  139.4441  163.3489 C.ar    1  UNL1        0.0245
     31 C         141.5958  139.5580  162.1078 C.ar    1  UNL1        0.0743
     32 CL        141.7789  140.7267  161.1854 Cl      1  UNL1       -0.0809
     33 C         143.0822  138.1617  165.5123 C.1     1  UNL1        0.1020
     34 N         143.9170  138.0480  166.7533 N.1     1  UNL1       -0.1908
@<TRIPOS>BOND
     1    11    12    1
     2    12    13   ar
     3    13     8    1
     4     8     9    1
     5     8     7    1
     6     7     1    1
     7     1     2    1
     8     2     3    1
     9     3     4    1
    10     4    22    1
    11    22    23    1
    12    23    24    1
    13    23    26    1
    14    26    27   ar
    15    27    28   ar
    16    28    29   ar
    17    29    33    1
    18    33    34    3
    19    29    30   ar
    20    30    31   ar
    21    31    32    1
    22     4     5    1
    23     5     6    1
    24    13    14   ar
    25    14    15   ar
    26    15    16   ar
    27    16    17   ar
    28    17    18    1
    29    18    19    1
    30    19    20    1
    31    20    21    2
    32    17    12   ar
    33     6     1    1
    34    20    16    1
    35    31    26   ar
    36     9    10    1
    37    24    25    1
@<TRIPOS>MOLECULE
*****
 34 37 0 0 0
SMALL
GASTEIGER

@<TRIPOS>ATOM
      1 N         143.1297  141.3443  161.3524 N.3     1  UNL1       -0.2680
      2 C         141.8124  142.0595  161.4089 C.3     1  UNL1        0.0897
      3 C         140.5425  141.3164  161.1169 C.3     1  UNL1        0.0897
      4 N         140.5900  139.8582  160.7684 N.3     1  UNL1       -0.2679
      5 C         141.9073  139.1431  160.7119 C.3     1  UNL1        0.0897
      6 C         143.1772  139.8860  161.0039 C.3     1  UNL1        0.0897
      7 C         144.3996  142.0873  161.6444 C.3     1  UNL1        0.1064
      8 C         145.1004  141.8883  162.9556 C.3     1  UNL1        0.1483
      9 O         146.5989  141.8466  163.0064 O.3     1  UNL1       -0.3786
     10 H         146.8878  141.7123  163.9226 H       1  UNL1        0.2108
     11 C         144.6791  139.1617  164.1339 C.3     1  UNL1        0.0306
     12 C         144.0919  140.3677  164.8053 C.ar    1  UNL1       -0.0238
     13 C         144.3025  141.7311  164.2162 C.ar    1  UNL1        0.0015
     14 C         143.7154  142.9370  164.8875 C.ar    1  UNL1       -0.0020
     15 C         142.9176  142.7798  166.1480 C.ar    1  UNL1        0.0060
     16 C         142.7070  141.4165  166.7371 C.ar    1  UNL1        0.0748
     17 C         143.2941  140.2105  166.0658 C.ar    1  UNL1        0.0233
     18 C         142.9219  139.0029  166.8739 C.3     1  UNL1        0.2352
     19 O         142.1046  139.4626  168.0447 O.3     1  UNL1       -0.4404
     20 C         141.9718  140.9543  167.9601 C.2     1  UNL1        0.3413
     21 O         141.2335  141.8300  168.9286 O.2     1  UNL1       -0.2449
     22 C         139.3200  139.1153  160.4764 C.3     1  UNL1        0.1080
     23 C         138.1100  139.3313  161.3362 C.3     1  UNL1        0.1669
     24 O         136.7628  139.5147  160.7024 O.3     1  UNL1       -0.3771
     25 H         136.8502  139.4667  159.7376 H       1  UNL1        0.2109
     26 C         138.2470  139.3640  162.8295 C.ar    1  UNL1        0.0976
     27 N         138.7075  138.1418  163.5672 N.ar    1  UNL1       -0.2442
     28 C         138.8446  138.1743  165.0606 C.ar    1  UNL1        0.1088
     29 C         138.5213  139.4291  165.8162 C.ar    1  UNL1        0.0884
     30 C         138.0608  140.6513  165.0785 C.ar    1  UNL1        0.0245
     31 C         137.9237  140.6187  163.5851 C.ar    1  UNL1        0.0743
     32 CL        137.4633  141.8410  162.8474 Cl      1  UNL1       -0.0809
     33 C         138.6584  139.4618  167.3096 C.1     1  UNL1        0.1020
     34 N         138.7953  139.4945  168.8030 N.1     1  UNL1       -0.1908
@<TRIPOS>BOND
     1    11    12    1
     2    12    13   ar
     3    13     8    1
     4     8     9    1
     5     8     7    1
     6     7     1    1
     7     1     2    1
     8     2     3    1
     9     3     4    1
    10     4    22    1
    11    22    23    1
    12    23    24    1
    13    23    26    1
    14    26    27   ar
    15    27    28   ar
    16    28    29   ar
    17    29    33    1
    18    33    34    3
    19    29    30   ar
    20    30    31   ar
    21    31    32    1
    22     4     5    1
    23     5     6    1
    24    13    14   ar
    25    14    15   ar
    26    15    16   ar
    27    16    17   ar
    28    17    18    1
    29    18    19    1
    30    19    20    1
    31    20    21    2
    32    17    12   ar
    33     6     1    1
    34    20    16    1
    35    31    26   ar
    36     9    10    1
    37    24    25    1
@<TRIPOS>MOLECULE
*****
 34 37 0 0 0
SMALL
GASTEIGER

@<TRIPOS>ATOM
      1 N         139.9859  143.3344  160.7777 N.3     1  UNL1       -0.2680
      2 C         141.0273  142.2935  160.4912 C.3     1  UNL1        0.0897
      3 C         140.6305  140.8534  160.3548 C.3     1  UNL1        0.0897
      4 N         139.1924  140.4541  160.5050 N.3     1  UNL1       -0.2679
      5 C         138.1511  141.4950  160.7915 C.3     1  UNL1        0.0897
      6 C         138.5478  142.9352  160.9279 C.3     1  UNL1        0.0897
      7 C         140.3826  144.7745  160.9141 C.3     1  UNL1        0.1064
      8 C         140.4624  145.4050  162.2728 C.3     1  UNL1        0.1483
      9 O         140.3112  146.8900  162.4206 O.3     1  UNL1       -0.3786
     10 H         140.3880  147.1313  163.3569 H       1  UNL1        0.2108
     11 C         143.2402  144.5127  162.9712 C.3     1  UNL1        0.0306
     12 C         142.0824  144.1043  163.8330 C.ar    1  UNL1       -0.0238
     13 C         140.6934  144.5504  163.4838 C.ar    1  UNL1        0.0015
     14 C         139.5356  144.1421  164.3455 C.ar    1  UNL1       -0.0020
     15 C         139.7666  143.2876  165.5565 C.ar    1  UNL1        0.0060
     16 C         141.1555  142.8414  165.9057 C.ar    1  UNL1        0.0748
     17 C         142.3134  143.2498  165.0440 C.ar    1  UNL1        0.0233
     18 C         143.5607  142.6618  165.6343 C.3     1  UNL1        0.2352
     19 O         143.1737  141.8900  166.8609 O.3     1  UNL1       -0.4404
     20 C         141.6872  142.0010  167.0287 C.2     1  UNL1        0.3413
     21 O         140.8751  141.3806  168.1266 O.2     1  UNL1       -0.2449
     22 C         138.7957  139.0140  160.3686 C.3     1  UNL1        0.1080
     23 C         138.6169  138.1660  161.5930 C.3     1  UNL1        0.1669
     24 O         137.4288  137.2579  161.7093 O.3     1  UNL1       -0.3771
     25 H         136.8803  137.3395  160.9134 H       1  UNL1        0.2109
     26 C         139.6263  138.2262  162.7009 C.ar    1  UNL1        0.0976
     27 N         140.8694  137.3899  162.6291 N.ar    1  UNL1       -0.2442
     28 C         141.8788  137.4500  163.7371 C.ar    1  UNL1        0.1088
     29 C         141.6450  138.3465  164.9167 C.ar    1  UNL1        0.0884
     30 C         140.4019  139.1828  164.9885 C.ar    1  UNL1        0.0245
     31 C         139.3925  139.1227  163.8806 C.ar    1  UNL1        0.0743
     32 CL        138.1494  139.9590  163.9524 Cl      1  UNL1       -0.0809
     33 C         142.6544  138.4067  166.0248 C.1     1  UNL1        0.1020
     34 N         143.6638  138.4670  167.1327 N.1     1  UNL1       -0.1908
@<TRIPOS>BOND
     1    11    12    1
     2    12    13   ar
     3    13     8    1
     4     8     9    1
     5     8     7    1
     6     7     1    1
     7     1     2    1
     8     2     3    1
     9     3     4    1
    10     4    22    1
    11    22    23    1
    12    23    24    1
    13    23    26    1
    14    26    27   ar
    15    27    28   ar
    16    28    29   ar
    17    29    33    1
    18    33    34    3
    19    29    30   ar
    20    30    31   ar
    21    31    32    1
    22     4     5    1
    23     5     6    1
    24    13    14   ar
    25    14    15   ar
    26    15    16   ar
    27    16    17   ar
    28    17    18    1
    29    18    19    1
    30    19    20    1
    31    20    21    2
    32    17    12   ar
    33     6     1    1
    34    20    16    1
    35    31    26   ar
    36     9    10    1
    37    24    25    1
@<TRIPOS>MOLECULE
*****
 34 37 0 0 0
SMALL
GASTEIGER

@<TRIPOS>ATOM
      1 N         144.9267  141.4335  163.3271 N.3     1  UNL1       -0.2680
      2 C         144.6093  141.9331  161.9488 C.3     1  UNL1        0.0897
      3 C         143.9830  141.0129  160.9434 C.3     1  UNL1        0.0897
      4 N         143.6740  139.5932  161.3162 N.3     1  UNL1       -0.2679
      5 C         143.9914  139.0936  162.6946 C.3     1  UNL1        0.0897
      6 C         144.6177  140.0138  163.7000 C.3     1  UNL1        0.0897
      7 C         145.5531  142.3537  164.3326 C.3     1  UNL1        0.1064
      8 C         144.6892  143.2506  165.1687 C.3     1  UNL1        0.1483
      9 O         145.3130  144.1471  166.1969 O.3     1  UNL1       -0.3786
     10 H         144.6197  144.6563  166.6453 H       1  UNL1        0.2108
     11 C         143.4171  145.2350  163.3127 C.3     1  UNL1        0.0306
     12 C         142.5655  144.2434  164.0486 C.ar    1  UNL1       -0.0238
     13 C         143.2015  143.2512  164.9766 C.ar    1  UNL1        0.0015
     14 C         142.3499  142.2596  165.7124 C.ar    1  UNL1       -0.0020
     15 C         140.8623  142.2601  165.5203 C.ar    1  UNL1        0.0060
     16 C         140.2262  143.2523  164.5923 C.ar    1  UNL1        0.0748
     17 C         141.0778  144.2439  163.8565 C.ar    1  UNL1        0.0233
     18 C         140.1749  145.0954  163.0140 C.3     1  UNL1        0.2352
     19 O         138.7653  144.6300  163.2293 O.3     1  UNL1       -0.4404
     20 C         138.7970  143.4909  164.2047 C.2     1  UNL1        0.3413
     21 O         137.6081  142.7250  164.7047 O.2     1  UNL1       -0.2449
     22 C         143.0477  138.6730  160.3108 C.3     1  UNL1        0.1080
     23 C         141.5579  138.5013  160.2770 C.3     1  UNL1        0.1669
     24 O         140.8573  138.2862  158.9682 O.3     1  UNL1       -0.3771
     25 H         141.5084  138.2851  158.2493 H       1  UNL1        0.2109
     26 C         140.7688  138.5447  161.5519 C.ar    1  UNL1        0.0976
     27 N         140.6711  137.3220  162.4153 N.ar    1  UNL1       -0.2442
     28 C         139.8820  137.3652  163.6902 C.ar    1  UNL1        0.1088
     29 C         139.1907  138.6312  164.1018 C.ar    1  UNL1        0.0884
     30 C         139.2884  139.8539  163.2383 C.ar    1  UNL1        0.0245
     31 C         140.0774  139.8106  161.9634 C.ar    1  UNL1        0.0743
     32 CL        140.1751  141.0333  161.1000 Cl      1  UNL1       -0.0809
     33 C         138.4015  138.6746  165.3767 C.1     1  UNL1        0.1020
     34 N         137.6125  138.7180  166.6517 N.1     1  UNL1       -0.1908
@<TRIPOS>BOND
     1    11    12    1
     2    12    13   ar
     3    13     8    1
     4     8     9    1
     5     8     7    1
     6     7     1    1
     7     1     2    1
     8     2     3    1
     9     3     4    1
    10     4    22    1
    11    22    23    1
    12    23    24    1
    13    23    26    1
    14    26    27   ar
    15    27    28   ar
    16    28    29   ar
    17    29    33    1
    18    33    34    3
    19    29    30   ar
    20    30    31   ar
    21    31    32    1
    22     4     5    1
    23     5     6    1
    24    13    14   ar
    25    14    15   ar
    26    15    16   ar
    27    16    17   ar
    28    17    18    1
    29    18    19    1
    30    19    20    1
    31    20    21    2
    32    17    12   ar
    33     6     1    1
    34    20    16    1
    35    31    26   ar
    36     9    10    1
    37    24    25    1
@<TRIPOS>MOLECULE
*****
 34 37 0 0 0
SMALL
GASTEIGER

@<TRIPOS>ATOM
      1 N         141.4598  143.3348  160.6267 N.3     1  UNL1       -0.2680
      2 C         142.8397  142.7471  160.6070 C.3     1  UNL1        0.0897
      3 C         143.0283  141.2856  160.3269 C.3     1  UNL1        0.0897
      4 N         141.8372  140.4119  160.0666 N.3     1  UNL1       -0.2679
      5 C         140.4573  140.9997  160.0864 C.3     1  UNL1        0.0897
      6 C         140.2685  142.4612  160.3664 C.3     1  UNL1        0.0897
      7 C         141.2710  144.7963  160.9068 C.3     1  UNL1        0.1064
      8 C         140.9080  145.2545  162.2882 C.3     1  UNL1        0.1483
      9 O         140.4726  146.6713  162.5183 O.3     1  UNL1       -0.3786
     10 H         140.2764  146.8005  163.4594 H       1  UNL1        0.2108
     11 C         143.5251  144.7658  163.6711 C.3     1  UNL1        0.0306
     12 C         142.2889  144.0514  164.1311 C.ar    1  UNL1       -0.0238
     13 C         140.9803  144.2957  163.4396 C.ar    1  UNL1        0.0015
     14 C         139.7442  143.5813  163.8995 C.ar    1  UNL1       -0.0020
     15 C         139.8165  142.6226  165.0508 C.ar    1  UNL1        0.0060
     16 C         141.1250  142.3782  165.7423 C.ar    1  UNL1        0.0748
     17 C         142.3612  143.0927  165.2824 C.ar    1  UNL1        0.0233
     18 C         143.5014  142.6529  166.1522 C.3     1  UNL1        0.2352
     19 O         142.9699  141.6666  167.1496 O.3     1  UNL1       -0.4404
     20 C         141.5012  141.4969  166.8963 C.2     1  UNL1        0.3413
     21 O         140.5719  140.6028  167.6624 O.2     1  UNL1       -0.2449
     22 C         142.0259  138.9504  159.7865 C.3     1  UNL1        0.1080
     23 C         142.1771  137.9824  160.9224 C.3     1  UNL1        0.1669
     24 O         143.2518  136.9369  160.8787 O.3     1  UNL1       -0.3771
     25 H         143.7552  137.0249  160.0542 H       1  UNL1        0.2109
     26 C         141.2537  138.0600  162.1019 C.ar    1  UNL1        0.0976
     27 N         139.8223  137.6334  161.9630 N.ar    1  UNL1       -0.2442
     28 C         138.8988  137.7109  163.1425 C.ar    1  UNL1        0.1088
     29 C         139.4067  138.2151  164.4608 C.ar    1  UNL1        0.0884
     30 C         140.8380  138.6418  164.5996 C.ar    1  UNL1        0.0245
     31 C         141.7615  138.5642  163.4202 C.ar    1  UNL1        0.0743
     32 CL        143.1928  138.9908  163.5590 Cl      1  UNL1       -0.0809
     33 C         138.4832  138.2927  165.6403 C.1     1  UNL1        0.1020
     34 N         137.5597  138.3702  166.8198 N.1     1  UNL1       -0.1908
@<TRIPOS>BOND
     1    11    12    1
     2    12    13   ar
     3    13     8    1
     4     8     9    1
     5     8     7    1
     6     7     1    1
     7     1     2    1
     8     2     3    1
     9     3     4    1
    10     4    22    1
    11    22    23    1
    12    23    24    1
    13    23    26    1
    14    26    27   ar
    15    27    28   ar
    16    28    29   ar
    17    29    33    1
    18    33    34    3
    19    29    30   ar
    20    30    31   ar
    21    31    32    1
    22     4     5    1
    23     5     6    1
    24    13    14   ar
    25    14    15   ar
    26    15    16   ar
    27    16    17   ar
    28    17    18    1
    29    18    19    1
    30    19    20    1
    31    20    21    2
    32    17    12   ar
    33     6     1    1
    34    20    16    1
    35    31    26   ar
    36     9    10    1
    37    24    25    1
@<TRIPOS>MOLECULE
*****
 34 37 0 0 0
SMALL
GASTEIGER

@<TRIPOS>ATOM
      1 N         143.3570  139.5508  163.5206 N.3     1  UNL1       -0.2680
      2 C         142.0588  139.6018  162.7710 C.3     1  UNL1        0.0897
      3 C         140.7884  139.1696  163.4412 C.3     1  UNL1        0.0897
      4 N         140.8162  138.6865  164.8610 N.3     1  UNL1       -0.2679
      5 C         142.1145  138.6355  165.6106 C.3     1  UNL1        0.0897
      6 C         143.3849  139.0677  164.9404 C.3     1  UNL1        0.0897
      7 C         144.6275  139.9830  162.8504 C.3     1  UNL1        0.1064
      8 C         144.9318  141.4430  162.6902 C.3     1  UNL1        0.1483
      9 O         146.3214  141.9510  162.9370 O.3     1  UNL1       -0.3786
     10 H         146.3460  142.9096  162.7905 H       1  UNL1        0.2108
     11 C         143.4042  142.9586  164.7806 C.3     1  UNL1        0.0306
     12 C         143.0826  143.1529  163.3284 C.ar    1  UNL1       -0.0238
     13 C         143.8464  142.3951  162.2831 C.ar    1  UNL1        0.0015
     14 C         143.5248  142.5894  160.8310 C.ar    1  UNL1       -0.0020
     15 C         142.4395  143.5414  160.4240 C.ar    1  UNL1        0.0060
     16 C         141.6758  144.2992  161.4692 C.ar    1  UNL1        0.0748
     17 C         141.9973  144.1050  162.9214 C.ar    1  UNL1        0.0233
     18 C         141.0814  144.9838  163.7206 C.3     1  UNL1        0.2352
     19 O         140.1937  145.7212  162.7623 O.3     1  UNL1       -0.4404
     20 C         140.5611  145.2981  161.3709 C.2     1  UNL1        0.3413
     21 O         139.9253  145.7880  160.1036 O.2     1  UNL1       -0.2449
     22 C         139.5458  138.2543  165.5312 C.3     1  UNL1        0.1080
     23 C         138.8340  139.1892  166.4637 C.3     1  UNL1        0.1669
     24 O         137.3352  139.1903  166.5249 O.3     1  UNL1       -0.3771
     25 H         136.9857  138.5329  165.9032 H       1  UNL1        0.2109
     26 C         139.6210  140.1228  167.3348 C.ar    1  UNL1        0.0976
     27 N         140.0320  139.6956  168.7127 N.ar    1  UNL1       -0.2442
     28 C         140.8190  140.6291  169.5839 C.ar    1  UNL1        0.1088
     29 C         141.1949  141.9900  169.0772 C.ar    1  UNL1        0.0884
     30 C         140.7839  142.4173  167.6994 C.ar    1  UNL1        0.0245
     31 C         139.9969  141.4837  166.8282 C.ar    1  UNL1        0.0743
     32 CL        139.5859  141.9110  165.4503 Cl      1  UNL1       -0.0809
     33 C         141.9820  142.9237  169.9484 C.1     1  UNL1        0.1020
     34 N         142.7691  143.8573  170.8195 N.1     1  UNL1       -0.1908
@<TRIPOS>BOND
     1    11    12    1
     2    12    13   ar
     3    13     8    1
     4     8     9    1
     5     8     7    1
     6     7     1    1
     7     1     2    1
     8     2     3    1
     9     3     4    1
    10     4    22    1
    11    22    23    1
    12    23    24    1
    13    23    26    1
    14    26    27   ar
    15    27    28   ar
    16    28    29   ar
    17    29    33    1
    18    33    34    3
    19    29    30   ar
    20    30    31   ar
    21    31    32    1
    22     4     5    1
    23     5     6    1
    24    13    14   ar
    25    14    15   ar
    26    15    16   ar
    27    16    17   ar
    28    17    18    1
    29    18    19    1
    30    19    20    1
    31    20    21    2
    32    17    12   ar
    33     6     1    1
    34    20    16    1
    35    31    26   ar
    36     9    10    1
    37    24    25    1
