@<TRIPOS>MOLECULE
*****
 37 40 0 0 0
SMALL
GASTEIGER

@<TRIPOS>ATOM
      1 C         144.2694  141.6770  163.1414 C.ar    1  UNL1        0.0527
      2 C         145.0244  142.6909  163.9491 C.ar    1  UNL1        0.0466
      3 C         144.5818  143.0185  165.3443 C.ar    1  UNL1        0.1684
      4 F         145.3367  144.0323  166.1520 F       1  UNL1       -0.2018
      5 C         143.3843  142.3324  165.9319 C.ar    1  UNL1        0.1652
      6 F         142.9417  142.6600  167.3272 F       1  UNL1       -0.2021
      7 C         142.6294  141.3186  165.1242 C.ar    1  UNL1        0.0288
      8 C         143.0720  140.9909  163.7290 C.ar    1  UNL1        0.0146
      9 C         141.4319  140.6325  165.7118 C.3     1  UNL1        0.1085
     10 C         142.5266  139.9353  166.4638 C.3     1  UNL1        0.0291
     11 C         140.7530  141.5679  164.7558 C.3     1  UNL1        0.0425
     12 C         139.2569  141.5751  164.6485 C.3     1  UNL1        0.0829
     13 S         138.4396  140.6469  165.4973 S.3     1  UNL1       -0.0770
     14 C         139.1185  139.7114  166.4534 C.2     1  UNL1        0.1484
     15 N         138.3012  138.7831  167.3021 N.pl3   1  UNL1       -0.3380
     16 N         140.6146  139.7042  166.5606 N.2     1  UNL1       -0.2508
     17 H         137.3193  138.7879  167.2317 H       1  UNL1        0.1442
     18 H         138.7468  138.1692  167.9296 H       1  UNL1        0.1442
     19 C         138.5780  142.5106  163.6924 C.ar    1  UNL1        0.0376
     20 C         138.2799  143.9598  163.9389 C.ar    1  UNL1        0.0974
     21 C         138.6083  144.7281  165.1847 C.3     1  UNL1        0.0553
     22 N         137.5957  144.5059  162.7208 N.ar    1  UNL1       -0.0821
     23 O         137.4709  143.3942  161.7216 O.2     1  UNL1       -0.3584
     24 C         138.0781  142.1609  162.3221 C.ar    1  UNL1        0.1512
     25 C         138.1692  140.8146  161.6672 C.3     1  UNL1        0.0750
     26 C         143.9897  141.9404  160.5719 C.2     1  UNL1        0.2688
     27 O         142.8248  142.8592  160.7929 O.2     1  UNL1       -0.2681
     28 N         144.7120  141.3494  161.7461 N.am    1  UNL1       -0.2790
     29 H         145.4766  140.7464  161.6011 H       1  UNL1        0.1552
     30 C         145.3174  140.9575  156.3861 C.ar    1  UNL1        0.2449
     31 C         145.7418  142.2469  157.0242 C.ar    1  UNL1        0.1565
     32 N         145.2992  142.5746  158.4195 N.ar    1  UNL1       -0.2328
     33 C         144.4323  141.6128  159.1766 C.ar    1  UNL1        0.1541
     34 C         144.0079  140.3233  158.5385 C.ar    1  UNL1        0.1258
     35 N         144.4505  139.9957  157.1433 N.ar    1  UNL1       -0.2071
     36 C         146.8255  141.4526  154.3293 C.3     1  UNL1        0.2543
     37 O         145.7600  140.6298  154.9908 O.3     1  UNL1       -0.4551
@<TRIPOS>BOND
     1    36    37    1
     2    37    30    1
     3    30    31   ar
     4    31    32   ar
     5    32    33   ar
     6    33    26    1
     7    26    27    2
     8    26    28   am
     9    28     1    1
    10     1     2   ar
    11     2     3   ar
    12     3     4    1
    13     3     5   ar
    14     5     6    1
    15     5     7   ar
    16     7     9    1
    17     9    10    1
    18     9    11    1
    19    11    12    1
    20    12    19    1
    21    19    20   ar
    22    20    21    1
    23    20    22   ar
    24    22    23   ar
    25    23    24   ar
    26    24    25    1
    27    12    13    1
    28    13    14    1
    29    14    15    1
    30    14    16    2
    31     7     8   ar
    32    33    34   ar
    33    34    35   ar
    34    35    30   ar
    35     8     1   ar
    36    16     9    1
    37    24    19   ar
    38    28    29    1
    39    15    17    1
    40    15    18    1
@<TRIPOS>MOLECULE
*****
 37 40 0 0 0
SMALL
GASTEIGER

@<TRIPOS>ATOM
      1 C         142.9310  138.1168  161.0542 C.ar    1  UNL1        0.0527
      2 C         144.1001  139.0090  161.3495 C.ar    1  UNL1        0.0466
      3 C         144.1353  139.8028  162.6218 C.ar    1  UNL1        0.1684
      4 F         145.3043  140.6950  162.9170 F       1  UNL1       -0.2018
      5 C         143.0014  139.7042  163.5988 C.ar    1  UNL1        0.1652
      6 F         143.0366  140.4979  164.8711 F       1  UNL1       -0.2021
      7 C         141.8323  138.8120  163.3036 C.ar    1  UNL1        0.0288
      8 C         141.7972  138.0182  162.0313 C.ar    1  UNL1        0.0146
      9 C         140.6985  138.7134  164.2806 C.3     1  UNL1        0.1085
     10 C         141.5223  137.5388  164.7184 C.3     1  UNL1        0.0291
     11 C         140.2684  139.9223  163.5036 C.3     1  UNL1        0.0425
     12 C         138.9906  140.6246  163.8556 C.3     1  UNL1        0.0829
     13 S         138.1429  140.1182  164.9847 S.3     1  UNL1       -0.0770
     14 C         138.5730  138.9093  165.7618 C.2     1  UNL1        0.1484
     15 N         137.7252  138.4028  166.8908 N.pl3   1  UNL1       -0.3380
     16 N         139.8508  138.2070  165.4097 N.2     1  UNL1       -0.2508
     17 H         136.8865  138.8638  167.1219 H       1  UNL1        0.1442
     18 H         138.0074  137.6095  167.4008 H       1  UNL1        0.1442
     19 C         138.5606  141.8335  163.0786 C.ar    1  UNL1        0.0376
     20 C         138.5785  143.2502  163.5708 C.ar    1  UNL1        0.0974
     21 C         139.0296  143.7070  164.9265 C.3     1  UNL1        0.0553
     22 N         138.0661  144.1301  162.4693 N.ar    1  UNL1       -0.0821
     23 O         137.7315  143.2571  161.2963 O.2     1  UNL1       -0.3584
     24 C         138.0371  141.8376  161.6729 C.ar    1  UNL1        0.1512
     25 C         137.8518  140.6338  160.7975 C.3     1  UNL1        0.0750
     26 C         142.4800  137.9801  158.4993 C.2     1  UNL1        0.2688
     27 O         142.0994  139.4310  158.4889 O.2     1  UNL1       -0.2681
     28 N         142.8958  137.3230  159.7819 N.am    1  UNL1       -0.2790
     29 H         143.1457  136.3708  159.7887 H       1  UNL1        0.1552
     30 C         142.3745  135.5989  154.6824 C.ar    1  UNL1        0.2449
     31 C         143.6875  135.9027  155.3408 C.ar    1  UNL1        0.1565
     32 N         143.7227  136.6964  156.6131 N.ar    1  UNL1       -0.2328
     33 C         142.4448  137.1864  157.2270 C.ar    1  UNL1        0.1541
     34 C         141.1318  136.8826  156.5686 C.ar    1  UNL1        0.1258
     35 N         141.0966  136.0889  155.2963 N.ar    1  UNL1       -0.2071
     36 C         141.4822  133.5779  153.3152 C.3     1  UNL1        0.2543
     37 O         142.3393  134.8052  153.4101 O.3     1  UNL1       -0.4551
@<TRIPOS>BOND
     1    36    37    1
     2    37    30    1
     3    30    31   ar
     4    31    32   ar
     5    32    33   ar
     6    33    26    1
     7    26    27    2
     8    26    28   am
     9    28     1    1
    10     1     2   ar
    11     2     3   ar
    12     3     4    1
    13     3     5   ar
    14     5     6    1
    15     5     7   ar
    16     7     9    1
    17     9    10    1
    18     9    11    1
    19    11    12    1
    20    12    19    1
    21    19    20   ar
    22    20    21    1
    23    20    22   ar
    24    22    23   ar
    25    23    24   ar
    26    24    25    1
    27    12    13    1
    28    13    14    1
    29    14    15    1
    30    14    16    2
    31     7     8   ar
    32    33    34   ar
    33    34    35   ar
    34    35    30   ar
    35     8     1   ar
    36    16     9    1
    37    24    19   ar
    38    28    29    1
    39    15    17    1
    40    15    18    1
@<TRIPOS>MOLECULE
*****
 37 40 0 0 0
SMALL
GASTEIGER

@<TRIPOS>ATOM
      1 C         142.7635  138.8283  161.6486 C.ar    1  UNL1        0.0527
      2 C         143.9694  138.4718  162.4665 C.ar    1  UNL1        0.0466
      3 C         144.3866  139.3492  163.6093 C.ar    1  UNL1        0.1684
      4 F         145.5924  138.9928  164.4272 F       1  UNL1       -0.2018
      5 C         143.5979  140.5831  163.9343 C.ar    1  UNL1        0.1652
      6 F         144.0152  141.4605  165.0772 F       1  UNL1       -0.2021
      7 C         142.3921  140.9395  163.1165 C.ar    1  UNL1        0.0288
      8 C         141.9749  140.0622  161.9737 C.ar    1  UNL1        0.0146
      9 C         141.6035  142.1734  163.4415 C.3     1  UNL1        0.1085
     10 C         142.3352  142.6461  162.2204 C.3     1  UNL1        0.0291
     11 C         141.1456  141.2722  164.5498 C.3     1  UNL1        0.0425
     12 C         140.1533  141.7690  165.5589 C.3     1  UNL1        0.0829
     13 S         139.6188  143.1671  165.4599 S.3     1  UNL1       -0.0770
     14 C         140.0767  144.0683  164.3516 C.2     1  UNL1        0.1484
     15 N         139.5422  145.4663  164.2526 N.pl3   1  UNL1       -0.3380
     16 N         141.0690  143.5714  163.3425 N.2     1  UNL1       -0.2508
     17 H         138.8909  145.7924  164.9150 H       1  UNL1        0.1442
     18 H         139.8427  146.0578  163.5252 H       1  UNL1        0.1442
     19 C         139.6954  140.8678  166.6672 C.ar    1  UNL1        0.0376
     20 C         140.0692  140.9904  168.1147 C.ar    1  UNL1        0.0974
     21 C         140.9665  142.0358  168.7080 C.3     1  UNL1        0.0553
     22 N         139.3882  139.8841  168.8646 N.ar    1  UNL1       -0.0821
     23 O         138.5935  139.0778  167.8805 O.2     1  UNL1       -0.3584
     24 C         138.7834  139.6858  166.5224 C.ar    1  UNL1        0.1512
     25 C         138.1691  139.1974  165.2442 C.3     1  UNL1        0.0750
     26 C         142.8726  138.2153  159.1263 C.2     1  UNL1        0.2688
     27 O         143.8161  139.3572  158.8896 O.2     1  UNL1       -0.2681
     28 N         142.3463  137.9509  160.5058 N.am    1  UNL1       -0.2790
     29 H         141.7270  137.2015  160.6611 H       1  UNL1        0.1552
     30 C         141.6209  135.5832  155.6977 C.ar    1  UNL1        0.2449
     31 C         142.8505  135.2495  156.4894 C.ar    1  UNL1        0.1565
     32 N         143.2677  136.1269  157.6322 N.ar    1  UNL1       -0.2328
     33 C         142.4554  137.3380  157.9834 C.ar    1  UNL1        0.1541
     34 C         141.2258  137.6716  157.1917 C.ar    1  UNL1        0.1258
     35 N         140.8086  136.7942  156.0489 N.ar    1  UNL1       -0.2071
     36 C         141.7839  134.9264  153.1893 C.3     1  UNL1        0.2543
     37 O         141.2037  134.7058  154.5548 O.3     1  UNL1       -0.4551
@<TRIPOS>BOND
     1    36    37    1
     2    37    30    1
     3    30    31   ar
     4    31    32   ar
     5    32    33   ar
     6    33    26    1
     7    26    27    2
     8    26    28   am
     9    28     1    1
    10     1     2   ar
    11     2     3   ar
    12     3     4    1
    13     3     5   ar
    14     5     6    1
    15     5     7   ar
    16     7     9    1
    17     9    10    1
    18     9    11    1
    19    11    12    1
    20    12    19    1
    21    19    20   ar
    22    20    21    1
    23    20    22   ar
    24    22    23   ar
    25    23    24   ar
    26    24    25    1
    27    12    13    1
    28    13    14    1
    29    14    15    1
    30    14    16    2
    31     7     8   ar
    32    33    34   ar
    33    34    35   ar
    34    35    30   ar
    35     8     1   ar
    36    16     9    1
    37    24    19   ar
    38    28    29    1
    39    15    17    1
    40    15    18    1
@<TRIPOS>MOLECULE
*****
 37 40 0 0 0
SMALL
GASTEIGER

@<TRIPOS>ATOM
      1 C         141.1751  144.9124  161.5730 C.ar    1  UNL1        0.0527
      2 C         140.2131  145.4191  162.6064 C.ar    1  UNL1        0.0466
      3 C         140.1847  144.7999  163.9723 C.ar    1  UNL1        0.1684
      4 F         139.2228  145.3066  165.0056 F       1  UNL1       -0.2018
      5 C         141.1185  143.6740  164.3049 C.ar    1  UNL1        0.1652
      6 F         141.0901  143.0547  165.6708 F       1  UNL1       -0.2021
      7 C         142.0804  143.1673  163.2715 C.ar    1  UNL1        0.0288
      8 C         142.1088  143.7865  161.9056 C.ar    1  UNL1        0.0146
      9 C         143.0141  142.0414  163.6041 C.3     1  UNL1        0.1085
     10 C         143.8944  143.2129  163.9243 C.3     1  UNL1        0.0291
     11 C         141.8096  141.2608  163.1684 C.3     1  UNL1        0.0425
     12 C         141.8445  139.7613  163.1765 C.3     1  UNL1        0.0829
     13 S         143.0838  139.0422  163.6203 S.3     1  UNL1       -0.0770
     14 C         144.2884  139.8228  164.0560 C.2     1  UNL1        0.1484
     15 N         145.5277  139.1038  164.4998 N.pl3   1  UNL1       -0.3380
     16 N         144.2534  141.3224  164.0479 N.2     1  UNL1       -0.2508
     17 H         145.5506  138.1196  164.5051 H       1  UNL1        0.1442
     18 H         146.3183  139.6161  164.7858 H       1  UNL1        0.1442
     19 C         140.6399  138.9807  162.7407 C.ar    1  UNL1        0.0376
     20 C         139.4882  138.5770  163.6127 C.ar    1  UNL1        0.0974
     21 C         139.3387  138.8829  165.0736 C.3     1  UNL1        0.0553
     22 N         138.5121  137.8135  162.7674 N.ar    1  UNL1       -0.0821
     23 O         139.0607  137.7455  161.3729 O.2     1  UNL1       -0.3584
     24 C         140.3758  138.4668  161.3565 C.ar    1  UNL1        0.1512
     25 C         141.2696  138.6433  160.1650 C.3     1  UNL1        0.0750
     26 C         140.2542  145.0554  159.1479 C.2     1  UNL1        0.2688
     27 O         139.2766  143.9599  159.4546 O.2     1  UNL1       -0.2681
     28 N         141.2035  145.5316  160.2071 N.am    1  UNL1       -0.2790
     29 H         141.8451  146.2507  160.0058 H       1  UNL1        0.1552
     30 C         140.3392  146.9131  155.0501 C.ar    1  UNL1        0.2449
     31 C         139.3407  147.3829  156.0660 C.ar    1  UNL1        0.1565
     32 N         139.3123  146.7637  157.4319 N.ar    1  UNL1       -0.2328
     33 C         140.2826  145.6746  157.7819 C.ar    1  UNL1        0.1541
     34 C         141.2811  145.2048  156.7660 C.ar    1  UNL1        0.1258
     35 N         141.3095  145.8240  155.4001 N.ar    1  UNL1       -0.2071
     36 C         139.9711  148.9675  153.5030 C.3     1  UNL1        0.2543
     37 O         140.3676  147.5323  153.6842 O.3     1  UNL1       -0.4551
@<TRIPOS>BOND
     1    36    37    1
     2    37    30    1
     3    30    31   ar
     4    31    32   ar
     5    32    33   ar
     6    33    26    1
     7    26    27    2
     8    26    28   am
     9    28     1    1
    10     1     2   ar
    11     2     3   ar
    12     3     4    1
    13     3     5   ar
    14     5     6    1
    15     5     7   ar
    16     7     9    1
    17     9    10    1
    18     9    11    1
    19    11    12    1
    20    12    19    1
    21    19    20   ar
    22    20    21    1
    23    20    22   ar
    24    22    23   ar
    25    23    24   ar
    26    24    25    1
    27    12    13    1
    28    13    14    1
    29    14    15    1
    30    14    16    2
    31     7     8   ar
    32    33    34   ar
    33    34    35   ar
    34    35    30   ar
    35     8     1   ar
    36    16     9    1
    37    24    19   ar
    38    28    29    1
    39    15    17    1
    40    15    18    1
@<TRIPOS>MOLECULE
*****
 37 40 0 0 0
SMALL
GASTEIGER

@<TRIPOS>ATOM
      1 C         139.7905  143.9824  162.2154 C.ar    1  UNL1        0.0527
      2 C         139.0734  144.8145  163.2369 C.ar    1  UNL1        0.0466
      3 C         139.3282  144.5921  164.6983 C.ar    1  UNL1        0.1684
      4 F         138.6110  145.4241  165.7197 F       1  UNL1       -0.2018
      5 C         140.3001  143.5376  165.1381 C.ar    1  UNL1        0.1652
      6 F         140.5549  143.3152  166.5995 F       1  UNL1       -0.2021
      7 C         141.0172  142.7056  164.1167 C.ar    1  UNL1        0.0288
      8 C         140.7624  142.9280  162.6553 C.ar    1  UNL1        0.0146
      9 C         141.9891  141.6512  164.5566 C.3     1  UNL1        0.1085
     10 C         142.9152  142.5625  163.8070 C.3     1  UNL1        0.0291
     11 C         140.7256  141.1060  165.1535 C.3     1  UNL1        0.0425
     12 C         140.7556  139.8229  165.9299 C.3     1  UNL1        0.0829
     13 S         142.0491  139.0850  166.1094 S.3     1  UNL1       -0.0770
     14 C         143.3127  139.6302  165.5126 C.2     1  UNL1        0.1484
     15 N         144.6062  138.8922  165.6921 N.pl3   1  UNL1       -0.3380
     16 N         143.2827  140.9132  164.7362 N.2     1  UNL1       -0.2508
     17 H         144.6259  138.0501  166.2017 H       1  UNL1        0.1442
     18 H         145.4355  139.2500  165.3004 H       1  UNL1        0.1442
     19 C         139.4920  139.2778  166.5268 C.ar    1  UNL1        0.0376
     20 C         138.5460  138.3202  165.8650 C.ar    1  UNL1        0.0974
     21 C         138.6973  137.7396  164.4902 C.3     1  UNL1        0.0553
     22 N         137.4219  138.0451  166.8195 N.ar    1  UNL1       -0.0821
     23 O         137.6734  138.8327  168.0711 O.2     1  UNL1       -0.3584
     24 C         138.9528  139.5945  167.8901 C.ar    1  UNL1        0.1512
     25 C         139.5823  140.5120  168.8960 C.3     1  UNL1        0.0750
     26 C         140.6580  144.6267  159.8527 C.2     1  UNL1        0.2688
     27 O         142.0351  144.8263  160.4128 O.2     1  UNL1       -0.2681
     28 N         139.5357  144.2048  160.7540 N.am    1  UNL1       -0.2790
     29 H         138.6319  144.0738  160.3864 H       1  UNL1        0.1552
     30 C         139.8937  145.2939  155.4686 C.ar    1  UNL1        0.2449
     31 C         139.1725  144.1991  156.1976 C.ar    1  UNL1        0.1565
     32 N         139.4273  143.9767  157.6589 N.ar    1  UNL1       -0.2328
     33 C         140.4032  144.8491  158.3914 C.ar    1  UNL1        0.1541
     34 C         141.1244  145.9439  157.6624 C.ar    1  UNL1        0.1258
     35 N         140.8696  146.1663  156.2010 N.ar    1  UNL1       -0.2071
     36 C         140.6941  145.1667  153.0002 C.3     1  UNL1        0.2543
     37 O         139.6389  145.5163  154.0072 O.3     1  UNL1       -0.4551
@<TRIPOS>BOND
     1    36    37    1
     2    37    30    1
     3    30    31   ar
     4    31    32   ar
     5    32    33   ar
     6    33    26    1
     7    26    27    2
     8    26    28   am
     9    28     1    1
    10     1     2   ar
    11     2     3   ar
    12     3     4    1
    13     3     5   ar
    14     5     6    1
    15     5     7   ar
    16     7     9    1
    17     9    10    1
    18     9    11    1
    19    11    12    1
    20    12    19    1
    21    19    20   ar
    22    20    21    1
    23    20    22   ar
    24    22    23   ar
    25    23    24   ar
    26    24    25    1
    27    12    13    1
    28    13    14    1
    29    14    15    1
    30    14    16    2
    31     7     8   ar
    32    33    34   ar
    33    34    35   ar
    34    35    30   ar
    35     8     1   ar
    36    16     9    1
    37    24    19   ar
    38    28    29    1
    39    15    17    1
    40    15    18    1
@<TRIPOS>MOLECULE
*****
 37 40 0 0 0
SMALL
GASTEIGER

@<TRIPOS>ATOM
      1 C         140.3889  142.5892  161.5075 C.ar    1  UNL1        0.0527
      2 C         139.9784  144.0216  161.6800 C.ar    1  UNL1        0.0466
      3 C         139.1595  144.4292  162.8688 C.ar    1  UNL1        0.1684
      4 F         138.7491  145.8616  163.0413 F       1  UNL1       -0.2018
      5 C         138.7510  143.4043  163.8851 C.ar    1  UNL1        0.1652
      6 F         137.9321  143.8119  165.0739 F       1  UNL1       -0.2021
      7 C         139.1615  141.9719  163.7126 C.ar    1  UNL1        0.0288
      8 C         139.9804  141.5644  162.5238 C.ar    1  UNL1        0.0146
      9 C         138.7530  140.9471  164.7289 C.3     1  UNL1        0.1085
     10 C         137.7569  140.6523  163.6468 C.3     1  UNL1        0.0291
     11 C         139.8909  141.5978  165.4580 C.3     1  UNL1        0.0425
     12 C         140.2745  141.1213  166.8276 C.3     1  UNL1        0.0829
     13 S         139.5201  139.9941  167.4681 S.3     1  UNL1       -0.0770
     14 C         138.3821  139.3434  166.7390 C.2     1  UNL1        0.1484
     15 N         137.6276  138.2162  167.3795 N.pl3   1  UNL1       -0.3380
     16 N         137.9986  139.8200  165.3694 N.2     1  UNL1       -0.2508
     17 H         137.8794  137.9035  168.2784 H       1  UNL1        0.1442
     18 H         136.8807  137.7891  166.9010 H       1  UNL1        0.1442
     19 C         141.4125  141.7720  167.5567 C.ar    1  UNL1        0.0376
     20 C         141.3320  142.4468  168.8939 C.ar    1  UNL1        0.0974
     21 C         140.0994  142.5895  169.7368 C.3     1  UNL1        0.0553
     22 N         142.7005  142.9540  169.2403 N.ar    1  UNL1       -0.0821
     23 O         143.6268  142.5926  168.1171 O.2     1  UNL1       -0.3584
     24 C         142.8307  141.8621  167.0766 C.ar    1  UNL1        0.1512
     25 C         143.3600  141.3173  165.7832 C.3     1  UNL1        0.0750
     26 C         142.6951  142.0355  160.4470 C.2     1  UNL1        0.2688
     27 O         143.3635  142.2969  161.7641 O.2     1  UNL1       -0.2681
     28 N         141.2078  142.1816  160.3187 N.am    1  UNL1       -0.2790
     29 H         140.7690  142.0100  159.4542 H       1  UNL1        0.1552
     30 C         145.1518  140.8127  156.8805 C.ar    1  UNL1        0.2449
     31 C         145.2156  142.2231  157.3873 C.ar    1  UNL1        0.1565
     32 N         144.3967  142.6306  158.5761 N.ar    1  UNL1       -0.2328
     33 C         143.5140  141.6279  159.2581 C.ar    1  UNL1        0.1541
     34 C         143.4502  140.2175  158.7514 C.ar    1  UNL1        0.1258
     35 N         144.2691  139.8100  157.5626 N.ar    1  UNL1       -0.2071
     36 C         145.3049  139.7840  154.4997 C.3     1  UNL1        0.2543
     37 O         145.9707  140.4052  155.6917 O.3     1  UNL1       -0.4551
@<TRIPOS>BOND
     1    36    37    1
     2    37    30    1
     3    30    31   ar
     4    31    32   ar
     5    32    33   ar
     6    33    26    1
     7    26    27    2
     8    26    28   am
     9    28     1    1
    10     1     2   ar
    11     2     3   ar
    12     3     4    1
    13     3     5   ar
    14     5     6    1
    15     5     7   ar
    16     7     9    1
    17     9    10    1
    18     9    11    1
    19    11    12    1
    20    12    19    1
    21    19    20   ar
    22    20    21    1
    23    20    22   ar
    24    22    23   ar
    25    23    24   ar
    26    24    25    1
    27    12    13    1
    28    13    14    1
    29    14    15    1
    30    14    16    2
    31     7     8   ar
    32    33    34   ar
    33    34    35   ar
    34    35    30   ar
    35     8     1   ar
    36    16     9    1
    37    24    19   ar
    38    28    29    1
    39    15    17    1
    40    15    18    1
@<TRIPOS>MOLECULE
*****
 37 40 0 0 0
SMALL
GASTEIGER

@<TRIPOS>ATOM
      1 C         143.1223  138.8252  159.6719 C.ar    1  UNL1        0.0527
      2 C         143.8408  138.7291  160.9852 C.ar    1  UNL1        0.0466
      3 C         144.2902  139.9762  161.6872 C.ar    1  UNL1        0.1684
      4 F         145.0086  139.8801  163.0004 F       1  UNL1       -0.2018
      5 C         144.0211  141.3194  161.0759 C.ar    1  UNL1        0.1652
      6 F         144.4705  142.5664  161.7780 F       1  UNL1       -0.2021
      7 C         143.3027  141.4154  159.7627 C.ar    1  UNL1        0.0288
      8 C         142.8533  140.1683  159.0607 C.ar    1  UNL1        0.0146
      9 C         143.0337  142.7585  159.1515 C.3     1  UNL1        0.1085
     10 C         144.3449  142.4336  158.4994 C.3     1  UNL1        0.0291
     11 C         141.8159  142.6172  160.0158 C.3     1  UNL1        0.0425
     12 C         140.7846  143.7059  160.0425 C.3     1  UNL1        0.0829
     13 S         140.9709  144.9362  159.2048 S.3     1  UNL1       -0.0770
     14 C         142.1887  145.0777  158.3405 C.2     1  UNL1        0.1484
     15 N         142.3750  146.3080  157.5028 N.pl3   1  UNL1       -0.3380
     16 N         143.2200  143.9888  158.3139 N.2     1  UNL1       -0.2508
     17 H         141.6981  147.0226  157.5203 H       1  UNL1        0.1442
     18 H         143.1743  146.4008  156.9355 H       1  UNL1        0.1442
     19 C         139.5668  143.5645  160.9068 C.ar    1  UNL1        0.0376
     20 C         139.2043  144.4401  162.0695 C.ar    1  UNL1        0.0974
     21 C         139.9960  145.6109  162.5720 C.3     1  UNL1        0.0553
     22 N         137.9112  143.9393  162.6415 N.ar    1  UNL1       -0.0821
     23 O         137.4745  142.7542  161.8322 O.2     1  UNL1       -0.3584
     24 C         138.4978  142.5226  160.7601 C.ar    1  UNL1        0.1512
     25 C         138.4587  141.4392  159.7235 C.3     1  UNL1        0.0750
     26 C         143.0039  137.3722  157.5214 C.2     1  UNL1        0.2688
     27 O         143.7841  138.4133  156.7750 O.2     1  UNL1       -0.2681
     28 N         142.6730  137.5782  158.9698 N.am    1  UNL1       -0.2790
     29 H         142.1608  136.8948  159.4597 H       1  UNL1        0.1552
     30 C         141.6557  133.6310  155.4152 C.ar    1  UNL1        0.2449
     31 C         141.0491  134.9546  155.0547 C.ar    1  UNL1        0.1565
     32 N         141.4985  136.2017  155.7568 N.ar    1  UNL1       -0.2328
     33 C         142.5545  136.1251  156.8193 C.ar    1  UNL1        0.1541
     34 C         143.1610  134.8015  157.1798 C.ar    1  UNL1        0.1258
     35 N         142.7117  133.5544  156.4778 N.ar    1  UNL1       -0.2071
     36 C         141.5880  131.0387  155.2560 C.3     1  UNL1        0.2543
     37 O         141.2063  132.3839  154.7132 O.3     1  UNL1       -0.4551
@<TRIPOS>BOND
     1    36    37    1
     2    37    30    1
     3    30    31   ar
     4    31    32   ar
     5    32    33   ar
     6    33    26    1
     7    26    27    2
     8    26    28   am
     9    28     1    1
    10     1     2   ar
    11     2     3   ar
    12     3     4    1
    13     3     5   ar
    14     5     6    1
    15     5     7   ar
    16     7     9    1
    17     9    10    1
    18     9    11    1
    19    11    12    1
    20    12    19    1
    21    19    20   ar
    22    20    21    1
    23    20    22   ar
    24    22    23   ar
    25    23    24   ar
    26    24    25    1
    27    12    13    1
    28    13    14    1
    29    14    15    1
    30    14    16    2
    31     7     8   ar
    32    33    34   ar
    33    34    35   ar
    34    35    30   ar
    35     8     1   ar
    36    16     9    1
    37    24    19   ar
    38    28    29    1
    39    15    17    1
    40    15    18    1
@<TRIPOS>MOLECULE
*****
 37 40 0 0 0
SMALL
GASTEIGER

@<TRIPOS>ATOM
      1 C         142.1345  138.9089  160.6956 C.ar    1  UNL1        0.0527
      2 C         140.7529  138.4446  160.3408 C.ar    1  UNL1        0.0466
      3 C         139.7429  138.2004  161.4227 C.ar    1  UNL1        0.1684
      4 F         138.3615  137.7360  161.0680 F       1  UNL1       -0.2018
      5 C         140.1145  138.4206  162.8592 C.ar    1  UNL1        0.1652
      6 F         139.1045  138.1764  163.9410 F       1  UNL1       -0.2021
      7 C         141.4960  138.8850  163.2138 C.ar    1  UNL1        0.0288
      8 C         142.5060  139.1291  162.1320 C.ar    1  UNL1        0.0146
      9 C         141.8675  139.1051  164.6503 C.3     1  UNL1        0.1085
     10 C         141.9215  137.6072  164.5940 C.3     1  UNL1        0.0291
     11 C         141.6844  140.5266  164.2079 C.3     1  UNL1        0.0425
     12 C         141.8917  141.6480  165.1822 C.3     1  UNL1        0.0829
     13 S         142.2819  141.3480  166.5991 S.3     1  UNL1       -0.0770
     14 C         142.4650  139.9265  167.0417 C.2     1  UNL1        0.1484
     15 N         142.8552  139.6264  168.4586 N.pl3   1  UNL1       -0.3380
     16 N         142.2577  138.8051  166.0672 N.2     1  UNL1       -0.2508
     17 H         142.9912  140.3625  169.0981 H       1  UNL1        0.1442
     18 H         142.9754  138.6934  168.7490 H       1  UNL1        0.1442
     19 C         141.7086  143.0696  164.7397 C.ar    1  UNL1        0.0376
     20 C         142.7935  143.9943  164.2728 C.ar    1  UNL1        0.0974
     21 C         144.2518  143.6598  164.1665 C.3     1  UNL1        0.0553
     22 N         142.1639  145.3122  163.9310 N.ar    1  UNL1       -0.0821
     23 O         140.6899  145.2019  164.1866 O.2     1  UNL1       -0.3584
     24 C         140.4086  143.8159  164.6864 C.ar    1  UNL1        0.1512
     25 C         139.0633  143.2718  165.0662 C.3     1  UNL1        0.0750
     26 C         143.2288  140.4987  158.9563 C.2     1  UNL1        0.2688
     27 O         142.3031  141.6000  159.3805 O.2     1  UNL1       -0.2681
     28 N         143.1445  139.1531  159.6138 N.am    1  UNL1       -0.2790
     29 H         143.7520  138.4302  159.3353 H       1  UNL1        0.1552
     30 C         146.2587  141.2312  155.7108 C.ar    1  UNL1        0.2449
     31 C         145.4505  139.9676  155.7110 C.ar    1  UNL1        0.1565
     32 N         144.4405  139.7234  156.7928 N.ar    1  UNL1       -0.2328
     33 C         144.2388  140.7428  157.8744 C.ar    1  UNL1        0.1541
     34 C         145.0470  142.0064  157.8743 C.ar    1  UNL1        0.1258
     35 N         146.0570  142.2506  156.7925 N.ar    1  UNL1       -0.2071
     36 C         148.6785  141.8411  154.9878 C.3     1  UNL1        0.2543
     37 O         147.2687  141.4754  154.6290 O.3     1  UNL1       -0.4551
@<TRIPOS>BOND
     1    36    37    1
     2    37    30    1
     3    30    31   ar
     4    31    32   ar
     5    32    33   ar
     6    33    26    1
     7    26    27    2
     8    26    28   am
     9    28     1    1
    10     1     2   ar
    11     2     3   ar
    12     3     4    1
    13     3     5   ar
    14     5     6    1
    15     5     7   ar
    16     7     9    1
    17     9    10    1
    18     9    11    1
    19    11    12    1
    20    12    19    1
    21    19    20   ar
    22    20    21    1
    23    20    22   ar
    24    22    23   ar
    25    23    24   ar
    26    24    25    1
    27    12    13    1
    28    13    14    1
    29    14    15    1
    30    14    16    2
    31     7     8   ar
    32    33    34   ar
    33    34    35   ar
    34    35    30   ar
    35     8     1   ar
    36    16     9    1
    37    24    19   ar
    38    28    29    1
    39    15    17    1
    40    15    18    1
@<TRIPOS>MOLECULE
*****
 37 40 0 0 0
SMALL
GASTEIGER

@<TRIPOS>ATOM
      1 C         141.3030  138.3680  161.7969 C.ar    1  UNL1        0.0527
      2 C         140.1911  137.7603  162.5996 C.ar    1  UNL1        0.0466
      3 C         139.8981  138.2687  163.9801 C.ar    1  UNL1        0.1684
      4 F         138.7862  137.6611  164.7828 F       1  UNL1       -0.2018
      5 C         140.7170  139.3848  164.5578 C.ar    1  UNL1        0.1652
      6 F         140.4241  139.8932  165.9383 F       1  UNL1       -0.2021
      7 C         141.8289  139.9925  163.7551 C.ar    1  UNL1        0.0288
      8 C         142.1219  139.4841  162.3746 C.ar    1  UNL1        0.0146
      9 C         142.6478  141.1085  164.3328 C.3     1  UNL1        0.1085
     10 C         143.3611  139.9289  164.9243 C.3     1  UNL1        0.0291
     11 C         141.6503  141.9006  163.5407 C.3     1  UNL1        0.0425
     12 C         141.7193  143.3989  163.5317 C.3     1  UNL1        0.0829
     13 S         142.7859  144.1053  164.3149 S.3     1  UNL1       -0.0770
     14 C         143.7835  143.3133  165.1070 C.2     1  UNL1        0.1484
     15 N         144.8501  144.0197  165.8902 N.pl3   1  UNL1       -0.3380
     16 N         143.7144  141.8149  165.1160 N.2     1  UNL1       -0.2508
     17 H         144.8954  145.0031  165.8843 H       1  UNL1        0.1442
     18 H         145.5049  143.4999  166.4101 H       1  UNL1        0.1442
     19 C         140.7216  144.1909  162.7395 C.ar    1  UNL1        0.0376
     20 C         140.8041  144.4984  161.2737 C.ar    1  UNL1        0.0974
     21 C         141.8986  144.0679  160.3427 C.3     1  UNL1        0.0553
     22 N         139.5998  145.3121  160.9024 N.ar    1  UNL1       -0.0821
     23 O         138.7731  145.5074  162.1387 O.2     1  UNL1       -0.3584
     24 C         139.4665  144.8144  163.2742 C.ar    1  UNL1        0.1512
     25 C         138.9886  144.7555  164.6947 C.3     1  UNL1        0.0750
     26 C         140.9011  138.4629  159.2318 C.2     1  UNL1        0.2688
     27 O         139.9133  139.5745  159.4278 O.2     1  UNL1       -0.2681
     28 N         141.5960  137.8596  160.4164 N.am    1  UNL1       -0.2790
     29 H         142.2444  137.1300  160.2878 H       1  UNL1        0.1552
     30 C         141.7801  136.9377  155.0904 C.ar    1  UNL1        0.2449
     31 C         140.3597  137.1186  155.5373 C.ar    1  UNL1        0.1565
     32 N         140.0667  137.6270  156.9178 N.ar    1  UNL1       -0.2328
     33 C         141.1941  137.9545  157.8514 C.ar    1  UNL1        0.1541
     34 C         142.6145  137.7735  157.4045 C.ar    1  UNL1        0.1258
     35 N         142.9075  137.2651  156.0241 N.ar    1  UNL1       -0.2071
     36 C         142.2245  134.9565  153.4696 C.3     1  UNL1        0.2543
     37 O         142.0730  136.4293  153.7100 O.3     1  UNL1       -0.4551
@<TRIPOS>BOND
     1    36    37    1
     2    37    30    1
     3    30    31   ar
     4    31    32   ar
     5    32    33   ar
     6    33    26    1
     7    26    27    2
     8    26    28   am
     9    28     1    1
    10     1     2   ar
    11     2     3   ar
    12     3     4    1
    13     3     5   ar
    14     5     6    1
    15     5     7   ar
    16     7     9    1
    17     9    10    1
    18     9    11    1
    19    11    12    1
    20    12    19    1
    21    19    20   ar
    22    20    21    1
    23    20    22   ar
    24    22    23   ar
    25    23    24   ar
    26    24    25    1
    27    12    13    1
    28    13    14    1
    29    14    15    1
    30    14    16    2
    31     7     8   ar
    32    33    34   ar
    33    34    35   ar
    34    35    30   ar
    35     8     1   ar
    36    16     9    1
    37    24    19   ar
    38    28    29    1
    39    15    17    1
    40    15    18    1
