@<TRIPOS>MOLECULE
*****
 24 25 0 0 0
SMALL
GASTEIGER

@<TRIPOS>ATOM
      1 N         143.6466  140.6740  160.5320 N.3     1  UNL1       -0.2711
      2 C         144.0333  142.1153  160.6837 C.3     1  UNL1        0.0939
      3 C         144.0572  142.7463  162.0443 C.3     1  UNL1        0.1123
      4 N         143.6943  141.9359  163.2533 N.am    1  UNL1       -0.2612
      5 C         143.7181  142.5669  164.6139 C.2     1  UNL1        0.3072
      6 O         144.1048  144.0082  164.7656 O.2     1  UNL1       -0.2523
      7 N         143.3552  141.7566  165.8229 N.am    1  UNL1       -0.2640
      8 C         142.9685  140.3152  165.6712 C.3     1  UNL1        0.0955
      9 C         142.6056  139.5048  166.8802 C.3     1  UNL1        0.0327
     10 C         142.6294  140.1358  168.2408 C.3     1  UNL1        0.1025
     11 C         143.0161  141.5771  168.3925 C.3     1  UNL1        0.0327
     12 C         143.3790  142.3875  167.1835 C.3     1  UNL1        0.0955
     13 C         143.3076  140.4946  163.1016 C.3     1  UNL1        0.1123
     14 C         143.2837  139.8637  161.7410 C.3     1  UNL1        0.0939
     15 C         144.3020  140.7207  158.0184 C.3     1  UNL1        0.0173
     16 C         143.6228  140.0430  159.1714 C.3     1  UNL1        0.0577
     17 C         142.9197  138.7344  158.9637 C.3     1  UNL1        0.0173
     18 C         142.2665  139.3254  169.4498 C.2     1  UNL1        0.3163
     19 O         143.3040  138.4763  170.1226 O.2     1  UNL1       -0.2501
     20 O         140.8661  139.3641  169.9859 O.3     1  UNL1       -0.4558
     21 C         140.1616  140.6782  170.1490 C.3     1  UNL1        0.1363
     22 C         141.0505  141.0108  171.3104 C.3     1  UNL1        0.0437
     23 C         139.2726  140.3457  168.9875 C.3     1  UNL1        0.0437
     24 C         139.4570  141.9924  170.3120 C.3     1  UNL1        0.0437
@<TRIPOS>BOND
     1    15    16    1
     2    16    17    1
     3    16     1    1
     4     1     2    1
     5     2     3    1
     6     3     4    1
     7     4     5   am
     8     5     6    2
     9     5     7   am
    10     7     8    1
    11     8     9    1
    12     9    10    1
    13    10    18    1
    14    18    19    2
    15    18    20    1
    16    20    21    1
    17    21    22    1
    18    21    23    1
    19    21    24    1
    20    10    11    1
    21    11    12    1
    22     4    13    1
    23    13    14    1
    24    14     1    1
    25    12     7    1
@<TRIPOS>MOLECULE
*****
 24 25 0 0 0
SMALL
GASTEIGER

@<TRIPOS>ATOM
      1 N         140.4849  143.0818  161.5177 N.3     1  UNL1       -0.2711
      2 C         139.9571  141.6987  161.2759 C.3     1  UNL1        0.0939
      3 C         139.6219  140.8102  162.4370 C.3     1  UNL1        0.1123
      4 N         139.8145  141.3048  163.8399 N.am    1  UNL1       -0.2612
      5 C         139.4792  140.4163  165.0011 C.2     1  UNL1        0.3072
      6 O         138.9514  139.0333  164.7593 O.2     1  UNL1       -0.2523
      7 N         139.6718  140.9109  166.4040 N.am    1  UNL1       -0.2640
      8 C         140.1997  142.2940  166.6458 C.3     1  UNL1        0.0955
      9 C         140.3923  142.7886  168.0488 C.3     1  UNL1        0.0327
     10 C         140.0571  141.9001  169.2099 C.3     1  UNL1        0.1025
     11 C         139.5292  140.5171  168.9681 C.3     1  UNL1        0.0327
     12 C         139.3366  140.0224  167.5651 C.3     1  UNL1        0.0955
     13 C         140.3423  142.6879  164.0817 C.3     1  UNL1        0.1123
     14 C         140.6775  143.5763  162.9206 C.3     1  UNL1        0.0939
     15 C         140.5376  145.4414  160.4318 C.3     1  UNL1        0.0173
     16 C         140.8201  143.9702  160.3565 C.3     1  UNL1        0.0577
     17 C         141.4379  143.3875  159.1201 C.3     1  UNL1        0.0173
     18 C         140.2497  142.3948  170.6129 C.2     1  UNL1        0.3163
     19 O         139.1776  143.2085  171.2751 O.2     1  UNL1       -0.2501
     20 O         141.5144  142.0757  171.3536 O.3     1  UNL1       -0.4558
     21 C         142.8400  142.2019  170.6633 C.3     1  UNL1        0.1363
     22 C         142.7867  143.6912  170.8331 C.3     1  UNL1        0.0437
     23 C         142.8933  140.7125  170.4934 C.3     1  UNL1        0.0437
     24 C         144.1658  142.3281  169.9728 C.3     1  UNL1        0.0437
@<TRIPOS>BOND
     1    15    16    1
     2    16    17    1
     3    16     1    1
     4     1     2    1
     5     2     3    1
     6     3     4    1
     7     4     5   am
     8     5     6    2
     9     5     7   am
    10     7     8    1
    11     8     9    1
    12     9    10    1
    13    10    18    1
    14    18    19    2
    15    18    20    1
    16    20    21    1
    17    21    22    1
    18    21    23    1
    19    21    24    1
    20    10    11    1
    21    11    12    1
    22     4    13    1
    23    13    14    1
    24    14     1    1
    25    12     7    1
@<TRIPOS>MOLECULE
*****
 24 25 0 0 0
SMALL
GASTEIGER

@<TRIPOS>ATOM
      1 N         142.2032  141.7964  161.0456 N.3     1  UNL1       -0.2711
      2 C         141.1573  140.9374  160.3990 C.3     1  UNL1        0.0939
      3 C         140.1595  140.2050  161.2463 C.3     1  UNL1        0.1123
      4 N         140.2075  140.3316  162.7402 N.am    1  UNL1       -0.2612
      5 C         139.2097  139.5993  163.5875 C.2     1  UNL1        0.3072
      6 O         138.1637  138.7402  162.9409 O.2     1  UNL1       -0.2523
      7 N         139.2577  139.7259  165.0813 N.am    1  UNL1       -0.2640
      8 C         140.3037  140.5850  165.7279 C.3     1  UNL1        0.0955
      9 C         140.3518  140.7116  167.2218 C.3     1  UNL1        0.0327
     10 C         139.3539  139.9793  168.0691 C.3     1  UNL1        0.1025
     11 C         138.3080  139.1202  167.4225 C.3     1  UNL1        0.0327
     12 C         138.2599  138.9936  165.9286 C.3     1  UNL1        0.0955
     13 C         141.2534  141.1907  163.3867 C.3     1  UNL1        0.1123
     14 C         142.2513  141.9230  162.5394 C.3     1  UNL1        0.0939
     15 C         142.7450  143.2804  158.9830 C.3     1  UNL1        0.0173
     16 C         143.2011  142.5288  160.1983 C.3     1  UNL1        0.0577
     17 C         144.6551  142.5095  160.5663 C.3     1  UNL1        0.0173
     18 C         139.4020  140.1060  169.5630 C.2     1  UNL1        0.3163
     19 O         138.3126  140.8382  170.2890 O.2     1  UNL1       -0.2501
     20 O         140.5394  139.5005  170.3308 O.3     1  UNL1       -0.4558
     21 C         141.8847  140.1639  170.3261 C.3     1  UNL1        0.1363
     22 C         141.2962  141.3620  171.0101 C.3     1  UNL1        0.0437
     23 C         142.4732  138.9657  169.6421 C.3     1  UNL1        0.0437
     24 C         143.2301  140.8273  170.3215 C.3     1  UNL1        0.0437
@<TRIPOS>BOND
     1    15    16    1
     2    16    17    1
     3    16     1    1
     4     1     2    1
     5     2     3    1
     6     3     4    1
     7     4     5   am
     8     5     6    2
     9     5     7   am
    10     7     8    1
    11     8     9    1
    12     9    10    1
    13    10    18    1
    14    18    19    2
    15    18    20    1
    16    20    21    1
    17    21    22    1
    18    21    23    1
    19    21    24    1
    20    10    11    1
    21    11    12    1
    22     4    13    1
    23    13    14    1
    24    14     1    1
    25    12     7    1
@<TRIPOS>MOLECULE
*****
 24 25 0 0 0
SMALL
GASTEIGER

@<TRIPOS>ATOM
      1 N         142.9789  143.4422  158.6704 N.3     1  UNL1       -0.2711
      2 C         142.0383  144.5703  158.3662 C.3     1  UNL1        0.0939
      3 C         141.1110  145.0810  159.4289 C.3     1  UNL1        0.1123
      4 N         141.1243  144.4636  160.7958 N.am    1  UNL1       -0.2612
      5 C         140.1971  144.9742  161.8585 C.2     1  UNL1        0.3072
      6 O         139.2565  146.1023  161.5543 O.2     1  UNL1       -0.2523
      7 N         140.2104  144.3568  163.2255 N.am    1  UNL1       -0.2640
      8 C         141.1510  143.2286  163.5297 C.3     1  UNL1        0.0955
      9 C         141.1643  142.6112  164.8967 C.3     1  UNL1        0.0327
     10 C         140.2371  143.1218  165.9594 C.3     1  UNL1        0.1025
     11 C         139.2965  144.2500  165.6552 C.3     1  UNL1        0.0327
     12 C         139.2831  144.8675  164.2882 C.3     1  UNL1        0.0955
     13 C         142.0649  143.3354  161.1000 C.3     1  UNL1        0.1123
     14 C         142.9922  142.8248  160.0373 C.3     1  UNL1        0.0939
     15 C         145.2820  142.4609  157.9757 C.3     1  UNL1        0.0173
     16 C         143.9062  142.9315  157.6077 C.3     1  UNL1        0.0577
     17 C         143.4576  142.8915  156.1769 C.3     1  UNL1        0.0173
     18 C         140.2504  142.5043  167.3264 C.2     1  UNL1        0.3163
     19 O         140.4134  143.3715  168.5394 O.2     1  UNL1       -0.2501
     20 O         140.1008  141.0198  167.4802 O.3     1  UNL1       -0.4558
     21 C         140.7017  140.3243  168.6656 C.3     1  UNL1        0.1363
     22 C         139.3677  140.3399  169.3511 C.3     1  UNL1        0.0437
     23 C         142.0358  140.3087  167.9801 C.3     1  UNL1        0.0437
     24 C         141.3027  139.6288  169.8510 C.3     1  UNL1        0.0437
@<TRIPOS>BOND
     1    15    16    1
     2    16    17    1
     3    16     1    1
     4     1     2    1
     5     2     3    1
     6     3     4    1
     7     4     5   am
     8     5     6    2
     9     5     7   am
    10     7     8    1
    11     8     9    1
    12     9    10    1
    13    10    18    1
    14    18    19    2
    15    18    20    1
    16    20    21    1
    17    21    22    1
    18    21    23    1
    19    21    24    1
    20    10    11    1
    21    11    12    1
    22     4    13    1
    23    13    14    1
    24    14     1    1
    25    12     7    1
@<TRIPOS>MOLECULE
*****
 24 25 0 0 0
SMALL
GASTEIGER

@<TRIPOS>ATOM
      1 N         140.8304  143.4756  160.1739 N.3     1  UNL1       -0.2711
      2 C         139.4296  142.9655  160.0079 C.3     1  UNL1        0.0939
      3 C         138.7736  142.2000  161.1186 C.3     1  UNL1        0.1123
      4 N         139.5184  141.9446  162.3953 N.am    1  UNL1       -0.2612
      5 C         138.8623  141.1791  163.5060 C.2     1  UNL1        0.3072
      6 O         137.4616  140.6690  163.3400 O.2     1  UNL1       -0.2523
      7 N         139.6071  140.9237  164.7827 N.am    1  UNL1       -0.2640
      8 C         141.0079  141.4338  164.9488 C.3     1  UNL1        0.0955
      9 C         141.7527  141.1784  166.2256 C.3     1  UNL1        0.0327
     10 C         141.0966  140.4129  167.3363 C.3     1  UNL1        0.1025
     11 C         139.6959  139.9028  167.1702 C.3     1  UNL1        0.0327
     12 C         138.9510  140.1582  165.8934 C.3     1  UNL1        0.0955
     13 C         140.9191  142.4547  162.5613 C.3     1  UNL1        0.1123
     14 C         141.5751  143.2202  161.4507 C.3     1  UNL1        0.0939
     15 C         140.8665  145.5106  158.5591 C.3     1  UNL1        0.0173
     16 C         141.4864  144.2411  159.0632 C.3     1  UNL1        0.0577
     17 C         142.7623  143.7372  158.4566 C.3     1  UNL1        0.0173
     18 C         141.8415  140.1575  168.6130 C.2     1  UNL1        0.3163
     19 O         143.0045  139.2103  168.6262 O.2     1  UNL1       -0.2501
     20 O         141.4233  140.8494  169.8765 O.3     1  UNL1       -0.4558
     21 C         141.0095  142.2907  169.8407 C.3     1  UNL1        0.1363
     22 C         142.4225  142.6887  169.5325 C.3     1  UNL1        0.0437
     23 C         139.5965  141.8927  170.1488 C.3     1  UNL1        0.0437
     24 C         140.5957  143.7321  169.8048 C.3     1  UNL1        0.0437
@<TRIPOS>BOND
     1    15    16    1
     2    16    17    1
     3    16     1    1
     4     1     2    1
     5     2     3    1
     6     3     4    1
     7     4     5   am
     8     5     6    2
     9     5     7   am
    10     7     8    1
    11     8     9    1
    12     9    10    1
    13    10    18    1
    14    18    19    2
    15    18    20    1
    16    20    21    1
    17    21    22    1
    18    21    23    1
    19    21    24    1
    20    10    11    1
    21    11    12    1
    22     4    13    1
    23    13    14    1
    24    14     1    1
    25    12     7    1
@<TRIPOS>MOLECULE
*****
 24 25 0 0 0
SMALL
GASTEIGER

@<TRIPOS>ATOM
      1 N         142.9571  143.4313  158.5768 N.3     1  UNL1       -0.2711
      2 C         142.0463  144.5892  158.2947 C.3     1  UNL1        0.0939
      3 C         141.1329  145.1037  159.3675 C.3     1  UNL1        0.1123
      4 N         141.1303  144.4603  160.7225 N.am    1  UNL1       -0.2612
      5 C         140.2169  144.9748  161.7953 C.2     1  UNL1        0.3072
      6 O         139.3061  146.1327  161.5132 O.2     1  UNL1       -0.2523
      7 N         140.2143  144.3314  163.1503 N.am    1  UNL1       -0.2640
      8 C         141.1252  143.1735  163.4325 C.3     1  UNL1        0.0955
      9 C         141.1226  142.5301  164.7875 C.3     1  UNL1        0.0327
     10 C         140.2092  143.0446  165.8603 C.3     1  UNL1        0.1025
     11 C         139.2984  144.2025  165.5782 C.3     1  UNL1        0.0327
     12 C         139.3009  144.8459  164.2231 C.3     1  UNL1        0.0955
     13 C         142.0411  143.3024  161.0046 C.3     1  UNL1        0.1123
     14 C         142.9545  142.7879  159.9318 C.3     1  UNL1        0.0939
     15 C         143.4142  142.8992  156.0752 C.3     1  UNL1        0.0173
     16 C         143.8705  142.9168  157.5040 C.3     1  UNL1        0.0577
     17 C         145.2403  142.4198  157.8599 C.3     1  UNL1        0.0173
     18 C         140.2067  142.4011  167.2153 C.2     1  UNL1        0.3163
     19 O         139.8706  140.9458  167.3539 O.2     1  UNL1       -0.2501
     20 O         140.5402  143.2130  168.4317 O.3     1  UNL1       -0.4558
     21 C         141.1714  142.5549  169.6227 C.3     1  UNL1        0.1363
     22 C         142.4745  142.4692  168.8847 C.3     1  UNL1        0.0437
     23 C         139.8684  142.6405  170.3607 C.3     1  UNL1        0.0437
     24 C         141.8028  141.8967  170.8137 C.3     1  UNL1        0.0437
@<TRIPOS>BOND
     1    15    16    1
     2    16    17    1
     3    16     1    1
     4     1     2    1
     5     2     3    1
     6     3     4    1
     7     4     5   am
     8     5     6    2
     9     5     7   am
    10     7     8    1
    11     8     9    1
    12     9    10    1
    13    10    18    1
    14    18    19    2
    15    18    20    1
    16    20    21    1
    17    21    22    1
    18    21    23    1
    19    21    24    1
    20    10    11    1
    21    11    12    1
    22     4    13    1
    23    13    14    1
    24    14     1    1
    25    12     7    1
@<TRIPOS>MOLECULE
*****
 24 25 0 0 0
SMALL
GASTEIGER

@<TRIPOS>ATOM
      1 N         142.0049  143.3641  160.7845 N.3     1  UNL1       -0.2711
      2 C         143.2081  142.4715  160.7110 C.3     1  UNL1        0.0939
      3 C         143.5553  141.5837  161.8691 C.3     1  UNL1        0.1123
      4 N         142.6993  141.5886  163.1008 N.am    1  UNL1       -0.2612
      5 C         143.0465  140.7008  164.2590 C.2     1  UNL1        0.3072
      6 O         144.2497  139.8081  164.1854 O.2     1  UNL1       -0.2523
      7 N         142.1905  140.7057  165.4907 N.am    1  UNL1       -0.2640
      8 C         140.9872  141.5984  165.5643 C.3     1  UNL1        0.0955
      9 C         140.1312  141.6032  166.7961 C.3     1  UNL1        0.0327
     10 C         140.4784  140.7155  167.9542 C.3     1  UNL1        0.1025
     11 C         141.6816  139.8228  167.8806 C.3     1  UNL1        0.0327
     12 C         142.5377  139.8179  166.6489 C.3     1  UNL1        0.0955
     13 C         141.4961  142.4812  163.1744 C.3     1  UNL1        0.1123
     14 C         141.1489  143.3690  162.0163 C.3     1  UNL1        0.0939
     15 C         140.6088  145.3126  159.7826 C.3     1  UNL1        0.0173
     16 C         141.6578  144.2519  159.6264 C.3     1  UNL1        0.0577
     17 C         142.3596  144.0789  158.3121 C.3     1  UNL1        0.0173
     18 C         139.6223  140.7204  169.1860 C.2     1  UNL1        0.3163
     19 O         138.6144  139.6309  169.4031 O.2     1  UNL1       -0.2501
     20 O         139.7742  141.8147  170.2005 O.3     1  UNL1       -0.4558
     21 C         141.1019  142.4880  170.3843 C.3     1  UNL1        0.1363
     22 C         141.6162  141.2770  171.1048 C.3     1  UNL1        0.0437
     23 C         140.5876  143.6989  169.6639 C.3     1  UNL1        0.0437
     24 C         142.4297  143.1612  170.5681 C.3     1  UNL1        0.0437
@<TRIPOS>BOND
     1    15    16    1
     2    16    17    1
     3    16     1    1
     4     1     2    1
     5     2     3    1
     6     3     4    1
     7     4     5   am
     8     5     6    2
     9     5     7   am
    10     7     8    1
    11     8     9    1
    12     9    10    1
    13    10    18    1
    14    18    19    2
    15    18    20    1
    16    20    21    1
    17    21    22    1
    18    21    23    1
    19    21    24    1
    20    10    11    1
    21    11    12    1
    22     4    13    1
    23    13    14    1
    24    14     1    1
    25    12     7    1
@<TRIPOS>MOLECULE
*****
 24 25 0 0 0
SMALL
GASTEIGER

@<TRIPOS>ATOM
      1 N         138.7929  139.0709  163.0162 N.3     1  UNL1       -0.2711
      2 C         137.7294  139.8301  162.2798 C.3     1  UNL1        0.0939
      3 C         137.8082  139.9762  160.7890 C.3     1  UNL1        0.1123
      4 N         138.9505  139.3630  160.0346 N.am    1  UNL1       -0.2612
      5 C         139.0292  139.5090  158.5438 C.2     1  UNL1        0.3072
      6 O         137.9657  140.2682  157.8074 O.2     1  UNL1       -0.2523
      7 N         140.1715  138.8958  157.7895 N.am    1  UNL1       -0.2640
      8 C         141.2351  138.1365  158.5259 C.3     1  UNL1        0.0955
      9 C         142.3774  137.5233  157.7716 C.3     1  UNL1        0.0327
     10 C         142.4562  137.6693  156.2808 C.3     1  UNL1        0.1025
     11 C         141.3927  138.4286  155.5444 C.3     1  UNL1        0.0327
     12 C         140.2503  139.0418  156.2987 C.3     1  UNL1        0.0955
     13 C         140.0140  138.6037  160.7711 C.3     1  UNL1        0.1123
     14 C         139.9352  138.4577  162.2619 C.3     1  UNL1        0.0939
     15 C         138.2929  140.0893  165.3535 C.3     1  UNL1        0.0173
     16 C         138.7142  138.9248  164.5070 C.3     1  UNL1        0.0577
     17 C         139.0567  137.6143  165.1514 C.3     1  UNL1        0.0173
     18 C         143.5986  137.0561  155.5265 C.2     1  UNL1        0.3163
     19 O         144.9786  137.6285  155.6597 O.2     1  UNL1       -0.2501
     20 O         143.3609  135.8704  154.6390 O.3     1  UNL1       -0.4558
     21 C         142.6596  134.6589  155.1778 C.3     1  UNL1        0.1363
     22 C         141.5330  134.8819  154.2129 C.3     1  UNL1        0.0437
     23 C         143.7861  134.4360  156.1427 C.3     1  UNL1        0.0437
     24 C         141.9582  133.4474  155.7166 C.3     1  UNL1        0.0437
@<TRIPOS>BOND
     1    15    16    1
     2    16    17    1
     3    16     1    1
     4     1     2    1
     5     2     3    1
     6     3     4    1
     7     4     5   am
     8     5     6    2
     9     5     7   am
    10     7     8    1
    11     8     9    1
    12     9    10    1
    13    10    18    1
    14    18    19    2
    15    18    20    1
    16    20    21    1
    17    21    22    1
    18    21    23    1
    19    21    24    1
    20    10    11    1
    21    11    12    1
    22     4    13    1
    23    13    14    1
    24    14     1    1
    25    12     7    1
@<TRIPOS>MOLECULE
*****
 24 25 0 0 0
SMALL
GASTEIGER

@<TRIPOS>ATOM
      1 N         141.7970  144.5382  159.6758 N.3     1  UNL1       -0.2711
      2 C         140.6085  145.3626  160.0727 C.3     1  UNL1        0.0939
      3 C         140.0512  145.2553  161.4612 C.3     1  UNL1        0.1123
      4 N         140.6824  144.3235  162.4528 N.am    1  UNL1       -0.2612
      5 C         140.1251  144.2162  163.8412 C.2     1  UNL1        0.3072
      6 O         138.9366  145.0406  164.2381 O.2     1  UNL1       -0.2523
      7 N         140.7564  143.2844  164.8328 N.am    1  UNL1       -0.2640
      8 C         141.9450  142.4599  164.4359 C.3     1  UNL1        0.0955
      9 C         142.5763  141.5282  165.4275 C.3     1  UNL1        0.0327
     10 C         142.0190  141.4208  166.8160 C.3     1  UNL1        0.1025
     11 C         140.8304  142.2453  167.2129 C.3     1  UNL1        0.0327
     12 C         140.1991  143.1771  166.2213 C.3     1  UNL1        0.0955
     13 C         141.8710  143.4991  162.0558 C.3     1  UNL1        0.1123
     14 C         142.4283  143.6065  160.6674 C.3     1  UNL1        0.0939
     15 C         142.1190  145.8867  157.4786 C.3     1  UNL1        0.0173
     16 C         142.3543  144.6456  158.2873 C.3     1  UNL1        0.0577
     17 C         143.1470  143.5117  157.7075 C.3     1  UNL1        0.0173
     18 C         142.6504  140.4890  167.8076 C.2     1  UNL1        0.3163
     19 O         142.8016  139.0335  167.4781 O.2     1  UNL1       -0.2501
     20 O         143.1304  141.0127  169.1286 O.3     1  UNL1       -0.4558
     21 C         142.1399  141.4128  170.1815 C.3     1  UNL1        0.1363
     22 C         141.5689  140.0258  170.1714 C.3     1  UNL1        0.0437
     23 C         142.7108  142.7998  170.1917 C.3     1  UNL1        0.0437
     24 C         141.1492  141.8129  171.2345 C.3     1  UNL1        0.0437
@<TRIPOS>BOND
     1    15    16    1
     2    16    17    1
     3    16     1    1
     4     1     2    1
     5     2     3    1
     6     3     4    1
     7     4     5   am
     8     5     6    2
     9     5     7   am
    10     7     8    1
    11     8     9    1
    12     9    10    1
    13    10    18    1
    14    18    19    2
    15    18    20    1
    16    20    21    1
    17    21    22    1
    18    21    23    1
    19    21    24    1
    20    10    11    1
    21    11    12    1
    22     4    13    1
    23    13    14    1
    24    14     1    1
    25    12     7    1
