@<TRIPOS>MOLECULE
*****
 34 39 0 0 0
SMALL
GASTEIGER

@<TRIPOS>ATOM
      1 O         139.6430  144.8380  160.2719 O.2     1  UNL1       -0.2649
      2 C         139.6970  143.9004  159.1023 C.ar    1  UNL1        0.2837
      3 C         139.8337  144.4439  157.7109 C.ar    1  UNL1        0.1392
      4 C         139.9374  145.8454  157.1866 C.ar    1  UNL1        0.0256
      5 C         140.0556  145.7740  155.6930 C.ar    1  UNL1        0.0208
      6 C         140.0249  144.3283  155.2942 C.ar    1  UNL1        0.1006
      7 N         139.8877  143.5062  156.5414 N.ar    1  UNL1       -0.2221
      8 N         139.8051  142.0250  156.7632 N.ar    1  UNL1       -0.1435
      9 C         139.6684  141.4815  158.1545 C.ar    1  UNL1        0.2064
     10 N         139.6143  142.4191  159.3240 N.ar    1  UNL1       -0.2526
     11 C         140.1823  146.9429  154.7616 C.ar    1  UNL1        0.0016
     12 C         140.9603  146.8052  153.4866 C.ar    1  UNL1        0.0009
     13 C         141.0869  147.9743  152.5553 C.ar    1  UNL1        0.0114
     14 C         140.4355  149.2810  152.8990 C.ar    1  UNL1        0.0577
     15 CL        140.5622  150.4500  151.9676 Cl      1  UNL1       -0.0822
     16 C         139.6575  149.4188  154.1740 C.ar    1  UNL1        0.0114
     17 C         139.5309  148.2497  155.1053 C.ar    1  UNL1        0.0009
     18 C         139.4776  141.8755  160.7155 C.ar    1  UNL1        0.0876
     19 C         138.1366  141.8632  161.3874 C.ar    1  UNL1        0.0221
     20 C         137.9999  141.3196  162.7788 C.ar    1  UNL1        0.0358
     21 C         139.2042  140.7884  163.4981 C.ar    1  UNL1        0.1318
     22 N         140.5452  140.8008  162.8262 N.ar    1  UNL1       -0.2276
     23 C         140.6819  141.3443  161.4348 C.ar    1  UNL1        0.1179
     24 N         139.0676  140.2449  164.8895 N.pl3   1  UNL1       -0.2918
     25 C         138.2362  139.0649  165.2974 C.3     1  UNL1        0.0937
     26 C         138.3932  138.8766  166.7773 C.3     1  UNL1        0.0391
     27 C         139.3215  139.9403  167.2839 C.3     1  UNL1        0.0792
     28 C         139.7383  140.7860  166.1172 C.3     1  UNL1        0.1081
     29 N         139.7567  140.1259  168.7074 N.3     1  UNL1       -0.2681
     30 C         141.0048  139.8244  169.4829 C.3     1  UNL1        0.1032
     31 C         140.3721  140.3884  170.7205 C.3     1  UNL1        0.1423
     32 O         140.8072  140.5739  172.1438 O.3     1  UNL1       -0.3816
     33 C         139.1240  140.6899  169.9450 C.3     1  UNL1        0.1032
     34 H         141.7119  140.2408  172.2514 H       1  UNL1        0.2105
@<TRIPOS>BOND
     1     1     2    2
     2     2     3   ar
     3     3     4   ar
     4     4     5   ar
     5     5    11    1
     6    11    12   ar
     7    12    13   ar
     8    13    14   ar
     9    14    15    1
    10    14    16   ar
    11    16    17   ar
    12     5     6   ar
    13     6     7   ar
    14     7     8   ar
    15     8     9   ar
    16     9    10   ar
    17    10    18    1
    18    18    19   ar
    19    19    20   ar
    20    20    21   ar
    21    21    24    1
    22    24    25    1
    23    25    26    1
    24    26    27    1
    25    27    29    1
    26    29    30    1
    27    30    31    1
    28    31    32    1
    29    31    33    1
    30    27    28    1
    31    21    22   ar
    32    22    23   ar
    33    10     2   ar
    34    23    18   ar
    35     7     3   ar
    36    28    24    1
    37    17    11   ar
    38    33    29    1
    39    32    34    1
@<TRIPOS>MOLECULE
*****
 34 39 0 0 0
SMALL
GASTEIGER

@<TRIPOS>ATOM
      1 O         141.6245  145.0821  160.1515 O.2     1  UNL1       -0.2649
      2 C         140.7685  144.2963  159.2029 C.ar    1  UNL1        0.2837
      3 C         140.3284  144.9089  157.9064 C.ar    1  UNL1        0.1392
      4 C         140.5796  146.2562  157.2966 C.ar    1  UNL1        0.0256
      5 C         139.8788  146.3029  155.9712 C.ar    1  UNL1        0.0208
      6 C         139.1946  144.9846  155.7618 C.ar    1  UNL1        0.1006
      7 N         139.4724  144.1230  156.9579 N.ar    1  UNL1       -0.2221
      8 N         139.0566  142.7245  157.3058 N.ar    1  UNL1       -0.1435
      9 C         139.4967  142.1118  158.6023 C.ar    1  UNL1        0.2064
     10 N         140.3527  142.8976  159.5508 N.ar    1  UNL1       -0.2526
     11 C         139.8648  147.4641  155.0217 C.ar    1  UNL1        0.0016
     12 C         139.1736  148.7387  155.4059 C.ar    1  UNL1        0.0009
     13 C         139.1596  149.8999  154.4564 C.ar    1  UNL1        0.0114
     14 C         139.8367  149.7865  153.1228 C.ar    1  UNL1        0.0577
     15 CL        139.8227  150.9477  152.1733 Cl      1  UNL1       -0.0822
     16 C         140.5279  148.5119  152.7386 C.ar    1  UNL1        0.0114
     17 C         140.5419  147.3507  153.6881 C.ar    1  UNL1        0.0009
     18 C         140.7928  142.2849  160.8474 C.ar    1  UNL1        0.0876
     19 C         142.1204  141.5924  160.9371 C.ar    1  UNL1        0.0221
     20 C         142.5605  140.9797  162.2336 C.ar    1  UNL1        0.0358
     21 C         141.6731  141.0596  163.4403 C.ar    1  UNL1        0.1318
     22 N         140.3456  141.7521  163.3505 N.ar    1  UNL1       -0.2276
     23 C         139.9054  142.3648  162.0541 C.ar    1  UNL1        0.1179
     24 N         142.1132  140.4469  164.7368 N.pl3   1  UNL1       -0.2918
     25 C         142.8882  139.1720  164.8914 C.3     1  UNL1        0.0937
     26 C         143.1095  138.9388  166.3566 C.3     1  UNL1        0.0391
     27 C         142.4712  140.0695  167.1075 C.3     1  UNL1        0.0792
     28 C         141.8554  141.0016  166.1064 C.3     1  UNL1        0.1081
     29 N         142.4520  140.2386  168.5978 N.3     1  UNL1       -0.2681
     30 C         143.0527  141.2181  169.5620 C.3     1  UNL1        0.1032
     31 C         142.4247  140.4776  170.7055 C.3     1  UNL1        0.1423
     32 O         142.4055  140.6467  172.1957 O.3     1  UNL1       -0.3816
     33 C         141.8239  139.4982  169.7413 C.3     1  UNL1        0.1032
     34 H         142.9311  141.4246  172.4397 H       1  UNL1        0.2105
@<TRIPOS>BOND
     1     1     2    2
     2     2     3   ar
     3     3     4   ar
     4     4     5   ar
     5     5    11    1
     6    11    12   ar
     7    12    13   ar
     8    13    14   ar
     9    14    15    1
    10    14    16   ar
    11    16    17   ar
    12     5     6   ar
    13     6     7   ar
    14     7     8   ar
    15     8     9   ar
    16     9    10   ar
    17    10    18    1
    18    18    19   ar
    19    19    20   ar
    20    20    21   ar
    21    21    24    1
    22    24    25    1
    23    25    26    1
    24    26    27    1
    25    27    29    1
    26    29    30    1
    27    30    31    1
    28    31    32    1
    29    31    33    1
    30    27    28    1
    31    21    22   ar
    32    22    23   ar
    33    10     2   ar
    34    23    18   ar
    35     7     3   ar
    36    28    24    1
    37    17    11   ar
    38    33    29    1
    39    32    34    1
@<TRIPOS>MOLECULE
*****
 34 39 0 0 0
SMALL
GASTEIGER

@<TRIPOS>ATOM
      1 O         144.5587  141.5497  160.4878 O.2     1  UNL1       -0.2649
      2 C         143.7264  141.3538  159.2554 C.ar    1  UNL1        0.2837
      3 C         144.3242  141.5932  157.9007 C.ar    1  UNL1        0.1392
      4 C         145.6951  142.0242  157.4705 C.ar    1  UNL1        0.0256
      5 C         145.7100  142.0947  155.9723 C.ar    1  UNL1        0.0208
      6 C         144.3483  141.7073  155.4764 C.ar    1  UNL1        0.1006
      7 N         143.4919  141.3974  156.6683 N.ar    1  UNL1       -0.2221
      8 N         142.0616  140.9622  156.7905 N.ar    1  UNL1       -0.1435
      9 C         141.4638  140.7228  158.1452 C.ar    1  UNL1        0.2064
     10 N         142.2961  140.9186  159.3776 N.ar    1  UNL1       -0.2526
     11 C         146.8809  142.4842  155.1195 C.ar    1  UNL1        0.0016
     12 C         148.1888  141.7650  155.2676 C.ar    1  UNL1        0.0009
     13 C         149.3597  142.1546  154.4148 C.ar    1  UNL1        0.0114
     14 C         149.2227  143.2633  153.4139 C.ar    1  UNL1        0.0577
     15 CL        150.3937  143.6529  152.5612 Cl      1  UNL1       -0.0822
     16 C         147.9148  143.9826  153.2658 C.ar    1  UNL1        0.0114
     17 C         146.7439  143.5930  154.1186 C.ar    1  UNL1        0.0009
     18 C         141.6982  140.6792  160.7324 C.ar    1  UNL1        0.0876
     19 C         141.8126  139.3284  161.3746 C.ar    1  UNL1        0.0221
     20 C         141.2147  139.0890  162.7293 C.ar    1  UNL1        0.0358
     21 C         140.5024  140.2003  163.4417 C.ar    1  UNL1        0.1318
     22 N         140.3880  141.5510  162.7995 N.ar    1  UNL1       -0.2276
     23 C         140.9858  141.7905  161.4448 C.ar    1  UNL1        0.1179
     24 N         139.9045  139.9610  164.7964 N.pl3   1  UNL1       -0.2918
     25 C         138.5482  139.3825  165.0719 C.3     1  UNL1        0.0937
     26 C         138.3634  139.3221  166.5593 C.3     1  UNL1        0.0391
     27 C         139.6055  139.8632  167.2030 C.3     1  UNL1        0.0792
     28 C         140.5580  140.2581  166.1135 C.3     1  UNL1        0.1081
     29 N         139.8520  139.9877  168.6774 N.3     1  UNL1       -0.2681
     30 C         141.0592  139.8940  169.5626 C.3     1  UNL1        0.1032
     31 C         140.2004  140.1638  170.7625 C.3     1  UNL1        0.1423
     32 O         140.4468  140.2883  172.2368 O.3     1  UNL1       -0.3816
     33 C         138.9931  140.2576  169.8773 C.3     1  UNL1        0.1032
     34 H         141.3906  140.1584  172.4190 H       1  UNL1        0.2105
@<TRIPOS>BOND
     1     1     2    2
     2     2     3   ar
     3     3     4   ar
     4     4     5   ar
     5     5    11    1
     6    11    12   ar
     7    12    13   ar
     8    13    14   ar
     9    14    15    1
    10    14    16   ar
    11    16    17   ar
    12     5     6   ar
    13     6     7   ar
    14     7     8   ar
    15     8     9   ar
    16     9    10   ar
    17    10    18    1
    18    18    19   ar
    19    19    20   ar
    20    20    21   ar
    21    21    24    1
    22    24    25    1
    23    25    26    1
    24    26    27    1
    25    27    29    1
    26    29    30    1
    27    30    31    1
    28    31    32    1
    29    31    33    1
    30    27    28    1
    31    21    22   ar
    32    22    23   ar
    33    10     2   ar
    34    23    18   ar
    35     7     3   ar
    36    28    24    1
    37    17    11   ar
    38    33    29    1
    39    32    34    1
@<TRIPOS>MOLECULE
*****
 34 39 0 0 0
SMALL
GASTEIGER

@<TRIPOS>ATOM
      1 O         143.4047  136.9418  160.0926 O.2     1  UNL1       -0.2649
      2 C         142.8325  137.7277  158.9502 C.ar    1  UNL1        0.2837
      3 C         142.6023  137.0647  157.6245 C.ar    1  UNL1        0.1392
      4 C         142.8404  135.6622  157.1490 C.ar    1  UNL1        0.0256
      5 C         142.4154  135.5813  155.7127 C.ar    1  UNL1        0.0208
      6 C         141.9146  136.9339  155.3006 C.ar    1  UNL1        0.1006
      7 N         142.0301  137.8507  156.4822 N.ar    1  UNL1       -0.2221
      8 N         141.6882  139.2996  156.6655 N.ar    1  UNL1       -0.1435
      9 C         141.9185  139.9626  157.9911 C.ar    1  UNL1        0.2064
     10 N         142.4906  139.1767  159.1334 N.ar    1  UNL1       -0.2526
     11 C         142.4798  134.3619  154.8415 C.ar    1  UNL1        0.0016
     12 C         143.2120  133.1408  155.3134 C.ar    1  UNL1        0.0009
     13 C         143.2764  131.9215  154.4421 C.ar    1  UNL1        0.0114
     14 C         142.6087  131.9233  153.0989 C.ar    1  UNL1        0.0577
     15 CL        142.6731  130.7039  152.2277 Cl      1  UNL1       -0.0822
     16 C         141.8765  133.1444  152.6270 C.ar    1  UNL1        0.0114
     17 C         141.8121  134.3637  153.4983 C.ar    1  UNL1        0.0009
     18 C         142.7208  139.8398  160.4592 C.ar    1  UNL1        0.0876
     19 C         141.5635  140.1070  161.3752 C.ar    1  UNL1        0.0221
     20 C         141.7937  140.7700  162.7008 C.ar    1  UNL1        0.0358
     21 C         143.1813  141.1658  163.1105 C.ar    1  UNL1        0.1318
     22 N         144.3387  140.8986  162.1945 N.ar    1  UNL1       -0.2276
     23 C         144.1085  140.2356  160.8688 C.ar    1  UNL1        0.1179
     24 N         143.4116  141.8288  164.4361 N.pl3   1  UNL1       -0.2918
     25 C         144.3115  143.0016  164.6909 C.3     1  UNL1        0.0937
     26 C         144.2385  143.3330  166.1520 C.3     1  UNL1        0.0391
     27 C         143.2936  142.3651  166.8002 C.3     1  UNL1        0.0792
     28 C         142.7825  141.4354  165.7397 C.3     1  UNL1        0.1081
     29 N         142.9244  142.3325  168.2538 N.3     1  UNL1       -0.2681
     30 C         141.6369  142.3730  169.0223 C.3     1  UNL1        0.1032
     31 C         142.4025  142.2863  170.3094 C.3     1  UNL1        0.1423
     32 O         142.0334  142.2537  171.7628 O.3     1  UNL1       -0.3816
     33 C         143.6900  142.2458  169.5408 C.3     1  UNL1        0.1032
     34 H         141.0687  142.3015  171.8526 H       1  UNL1        0.2105
@<TRIPOS>BOND
     1     1     2    2
     2     2     3   ar
     3     3     4   ar
     4     4     5   ar
     5     5    11    1
     6    11    12   ar
     7    12    13   ar
     8    13    14   ar
     9    14    15    1
    10    14    16   ar
    11    16    17   ar
    12     5     6   ar
    13     6     7   ar
    14     7     8   ar
    15     8     9   ar
    16     9    10   ar
    17    10    18    1
    18    18    19   ar
    19    19    20   ar
    20    20    21   ar
    21    21    24    1
    22    24    25    1
    23    25    26    1
    24    26    27    1
    25    27    29    1
    26    29    30    1
    27    30    31    1
    28    31    32    1
    29    31    33    1
    30    27    28    1
    31    21    22   ar
    32    22    23   ar
    33    10     2   ar
    34    23    18   ar
    35     7     3   ar
    36    28    24    1
    37    17    11   ar
    38    33    29    1
    39    32    34    1
@<TRIPOS>MOLECULE
*****
 34 39 0 0 0
SMALL
GASTEIGER

@<TRIPOS>ATOM
      1 O         140.8166  137.6001  161.8377 O.2     1  UNL1       -0.2649
      2 C         140.8250  139.0838  161.6172 C.ar    1  UNL1        0.2837
      3 C         140.7063  140.0165  162.7859 C.ar    1  UNL1        0.1392
      4 C         140.5690  139.7676  164.2587 C.ar    1  UNL1        0.0256
      5 C         140.4924  141.0975  164.9483 C.ar    1  UNL1        0.0208
      6 C         140.5824  142.1683  163.9017 C.ar    1  UNL1        0.1006
      7 N         140.7147  141.5002  162.5653 N.ar    1  UNL1       -0.2221
      8 N         140.8416  142.0511  161.1759 N.ar    1  UNL1       -0.1435
      9 C         140.9602  141.1184  160.0072 C.ar    1  UNL1        0.2064
     10 N         140.9519  139.6348  160.2278 N.ar    1  UNL1       -0.2526
     11 C         140.3506  141.3179  166.4252 C.ar    1  UNL1        0.0016
     12 C         140.7055  142.6472  167.0226 C.ar    1  UNL1        0.0009
     13 C         140.5637  142.8675  168.4996 C.ar    1  UNL1        0.0114
     14 C         140.0671  141.7586  169.3792 C.ar    1  UNL1        0.0577
     15 CL        139.9253  141.9791  170.8561 Cl      1  UNL1       -0.0822
     16 C         139.7121  140.4293  168.7818 C.ar    1  UNL1        0.0114
     17 C         139.8539  140.2090  167.3048 C.ar    1  UNL1        0.0009
     18 C         141.0705  138.7021  159.0589 C.ar    1  UNL1        0.0876
     19 C         139.8669  138.3979  158.2170 C.ar    1  UNL1        0.0221
     20 C         139.9855  137.4652  157.0482 C.ar    1  UNL1        0.0358
     21 C         141.3077  136.8367  156.7215 C.ar    1  UNL1        0.1318
     22 N         142.5112  137.1408  157.5634 N.ar    1  UNL1       -0.2276
     23 C         142.3926  138.0735  158.7322 C.ar    1  UNL1        0.1179
     24 N         141.4263  135.9040  155.5527 N.pl3   1  UNL1       -0.2918
     25 C         140.8175  136.1073  154.1970 C.3     1  UNL1        0.0937
     26 C         141.1896  134.9331  153.3409 C.3     1  UNL1        0.0391
     27 C         142.0284  134.0041  154.1676 C.3     1  UNL1        0.0792
     28 C         142.1747  134.6041  155.5346 C.3     1  UNL1        0.1081
     29 N         142.6176  132.7034  153.7080 N.3     1  UNL1       -0.2681
     30 C         142.5980  131.9241  152.4266 C.3     1  UNL1        0.1032
     31 C         143.4507  130.8639  153.0582 C.3     1  UNL1        0.1423
     32 O         144.0398  129.5633  152.5987 O.3     1  UNL1       -0.3816
     33 C         143.4703  131.6432  154.3397 C.3     1  UNL1        0.1032
     34 H         143.7907  129.4040  151.6749 H       1  UNL1        0.2105
@<TRIPOS>BOND
     1     1     2    2
     2     2     3   ar
     3     3     4   ar
     4     4     5   ar
     5     5    11    1
     6    11    12   ar
     7    12    13   ar
     8    13    14   ar
     9    14    15    1
    10    14    16   ar
    11    16    17   ar
    12     5     6   ar
    13     6     7   ar
    14     7     8   ar
    15     8     9   ar
    16     9    10   ar
    17    10    18    1
    18    18    19   ar
    19    19    20   ar
    20    20    21   ar
    21    21    24    1
    22    24    25    1
    23    25    26    1
    24    26    27    1
    25    27    29    1
    26    29    30    1
    27    30    31    1
    28    31    32    1
    29    31    33    1
    30    27    28    1
    31    21    22   ar
    32    22    23   ar
    33    10     2   ar
    34    23    18   ar
    35     7     3   ar
    36    28    24    1
    37    17    11   ar
    38    33    29    1
    39    32    34    1
@<TRIPOS>MOLECULE
*****
 34 39 0 0 0
SMALL
GASTEIGER

@<TRIPOS>ATOM
      1 O         144.7603  140.8872  162.0034 O.2     1  UNL1       -0.2649
      2 C         143.2789  140.8402  161.7730 C.ar    1  UNL1        0.2837
      3 C         142.3438  140.6795  162.9348 C.ar    1  UNL1        0.1392
      4 C         142.5883  140.5433  164.4085 C.ar    1  UNL1        0.0256
      5 C         141.2579  140.4122  165.0888 C.ar    1  UNL1        0.0208
      6 C         140.1912  140.4674  164.0356 C.ar    1  UNL1        0.1006
      7 N         140.8624  140.6326  162.7044 N.ar    1  UNL1       -0.2221
      8 N         140.3159  140.7463  161.3121 N.ar    1  UNL1       -0.1435
      9 C         141.2510  140.9070  160.1502 C.ar    1  UNL1        0.2064
     10 N         142.7323  140.9540  160.3807 N.ar    1  UNL1       -0.2526
     11 C         141.0335  140.2538  166.5634 C.ar    1  UNL1        0.0016
     12 C         139.6550  140.4111  167.1335 C.ar    1  UNL1        0.0009
     13 C         139.4307  140.2526  168.6082 C.ar    1  UNL1        0.0114
     14 C         140.5848  139.9368  169.5128 C.ar    1  UNL1        0.0577
     15 CL        140.3605  139.7784  170.9874 Cl      1  UNL1       -0.0822
     16 C         141.9633  139.7795  168.9427 C.ar    1  UNL1        0.0114
     17 C         142.1876  139.9380  167.4680 C.ar    1  UNL1        0.0009
     18 C         143.6674  141.1147  159.2187 C.ar    1  UNL1        0.0876
     19 C         144.3967  142.4098  159.0165 C.ar    1  UNL1        0.0221
     20 C         145.3318  142.5705  157.8547 C.ar    1  UNL1        0.0358
     21 C         145.5375  141.4362  156.8951 C.ar    1  UNL1        0.1318
     22 N         144.8082  140.1411  157.0973 N.ar    1  UNL1       -0.2276
     23 C         143.8731  139.9804  158.2591 C.ar    1  UNL1        0.1179
     24 N         146.4725  141.5968  155.7332 N.pl3   1  UNL1       -0.2918
     25 C         146.1460  141.3251  154.2946 C.3     1  UNL1        0.0937
     26 C         147.3699  141.6178  153.4783 C.3     1  UNL1        0.0391
     27 C         148.4528  142.0703  154.4124 C.3     1  UNL1        0.0792
     28 C         147.8981  142.0573  155.8060 C.3     1  UNL1        0.1081
     29 N         149.8459  142.4662  154.0215 N.3     1  UNL1       -0.2681
     30 C         150.4393  143.3729  152.9843 C.3     1  UNL1        0.1032
     31 C         151.8159  143.0261  153.4689 C.3     1  UNL1        0.1423
     32 O         153.2089  143.4220  153.0781 O.3     1  UNL1       -0.3816
     33 C         151.2225  142.1195  154.5061 C.3     1  UNL1        0.1032
     34 H         153.1715  144.0477  152.3378 H       1  UNL1        0.2105
@<TRIPOS>BOND
     1     1     2    2
     2     2     3   ar
     3     3     4   ar
     4     4     5   ar
     5     5    11    1
     6    11    12   ar
     7    12    13   ar
     8    13    14   ar
     9    14    15    1
    10    14    16   ar
    11    16    17   ar
    12     5     6   ar
    13     6     7   ar
    14     7     8   ar
    15     8     9   ar
    16     9    10   ar
    17    10    18    1
    18    18    19   ar
    19    19    20   ar
    20    20    21   ar
    21    21    24    1
    22    24    25    1
    23    25    26    1
    24    26    27    1
    25    27    29    1
    26    29    30    1
    27    30    31    1
    28    31    32    1
    29    31    33    1
    30    27    28    1
    31    21    22   ar
    32    22    23   ar
    33    10     2   ar
    34    23    18   ar
    35     7     3   ar
    36    28    24    1
    37    17    11   ar
    38    33    29    1
    39    32    34    1
@<TRIPOS>MOLECULE
*****
 34 39 0 0 0
SMALL
GASTEIGER

@<TRIPOS>ATOM
      1 O         145.6555  142.6430  160.1977 O.2     1  UNL1       -0.2649
      2 C         144.7673  142.5262  158.9945 C.ar    1  UNL1        0.2837
      3 C         145.3673  142.4882  157.6202 C.ar    1  UNL1        0.1392
      4 C         146.7883  142.5468  157.1435 C.ar    1  UNL1        0.0256
      5 C         146.7784  142.4662  155.6457 C.ar    1  UNL1        0.0208
      6 C         145.3512  142.3578  155.1967 C.ar    1  UNL1        0.1006
      7 N         144.4791  142.3714  156.4171 N.ar    1  UNL1       -0.2221
      8 N         142.9910  142.2925  156.5882 N.ar    1  UNL1       -0.1435
      9 C         142.3911  142.3305  157.9625 C.ar    1  UNL1        0.2064
     10 N         143.2792  142.4473  159.1656 N.ar    1  UNL1       -0.2526
     11 C         147.9839  142.4898  154.7535 C.ar    1  UNL1        0.0016
     12 C         147.9579  143.2793  153.4783 C.ar    1  UNL1        0.0009
     13 C         149.1635  143.3029  152.5861 C.ar    1  UNL1        0.0114
     14 C         150.3951  142.5370  152.9690 C.ar    1  UNL1        0.0577
     15 CL        151.6006  142.5606  152.0767 Cl      1  UNL1       -0.0822
     16 C         150.4211  141.7475  154.2441 C.ar    1  UNL1        0.0114
     17 C         149.2155  141.7239  155.1363 C.ar    1  UNL1        0.0009
     18 C         142.6792  142.4852  160.5399 C.ar    1  UNL1        0.0876
     19 C         142.3789  143.8028  161.1910 C.ar    1  UNL1        0.0221
     20 C         141.7790  143.8408  162.5653 C.ar    1  UNL1        0.0358
     21 C         141.4793  142.5612  163.2884 C.ar    1  UNL1        0.1318
     22 N         141.7795  141.2437  162.6373 N.ar    1  UNL1       -0.2276
     23 C         142.3795  141.2057  161.2630 C.ar    1  UNL1        0.1179
     24 N         140.8793  142.5991  164.6626 N.pl3   1  UNL1       -0.2918
     25 C         140.0269  143.6990  165.2226 C.3     1  UNL1        0.0937
     26 C         139.6472  143.3233  166.6243 C.3     1  UNL1        0.0391
     27 C         140.2650  141.9913  166.9306 C.3     1  UNL1        0.0792
     28 C         141.0265  141.5436  165.7183 C.3     1  UNL1        0.1081
     29 N         140.1428  141.2388  168.2225 N.3     1  UNL1       -0.2681
     30 C         140.8211  141.3080  169.5586 C.3     1  UNL1        0.1032
     31 C         139.9698  140.1746  170.0495 C.3     1  UNL1        0.1423
     32 O         139.8477  139.4222  171.3413 O.3     1  UNL1       -0.3816
     33 C         139.2916  140.1054  168.7134 C.3     1  UNL1        0.1032
     34 H         140.4807  139.7785  171.9841 H       1  UNL1        0.2105
@<TRIPOS>BOND
     1     1     2    2
     2     2     3   ar
     3     3     4   ar
     4     4     5   ar
     5     5    11    1
     6    11    12   ar
     7    12    13   ar
     8    13    14   ar
     9    14    15    1
    10    14    16   ar
    11    16    17   ar
    12     5     6   ar
    13     6     7   ar
    14     7     8   ar
    15     8     9   ar
    16     9    10   ar
    17    10    18    1
    18    18    19   ar
    19    19    20   ar
    20    20    21   ar
    21    21    24    1
    22    24    25    1
    23    25    26    1
    24    26    27    1
    25    27    29    1
    26    29    30    1
    27    30    31    1
    28    31    32    1
    29    31    33    1
    30    27    28    1
    31    21    22   ar
    32    22    23   ar
    33    10     2   ar
    34    23    18   ar
    35     7     3   ar
    36    28    24    1
    37    17    11   ar
    38    33    29    1
    39    32    34    1
@<TRIPOS>MOLECULE
*****
 34 39 0 0 0
SMALL
GASTEIGER

@<TRIPOS>ATOM
      1 O         142.8012  136.5110  157.6532 O.2     1  UNL1       -0.2649
      2 C         141.9758  136.3341  156.4132 C.ar    1  UNL1        0.2837
      3 C         142.1553  135.1132  155.5605 C.ar    1  UNL1        0.1392
      4 C         143.0608  133.9242  155.6880 C.ar    1  UNL1        0.0256
      5 C         142.7949  133.0125  154.5269 C.ar    1  UNL1        0.0208
      6 C         141.7251  133.6380  153.6818 C.ar    1  UNL1        0.1006
      7 N         141.3297  134.9364  154.3206 N.ar    1  UNL1       -0.2221
      8 N         140.3247  135.9804  153.9335 N.ar    1  UNL1       -0.1435
      9 C         140.1452  137.2013  154.7862 C.ar    1  UNL1        0.2064
     10 N         140.9707  137.3782  156.0260 N.ar    1  UNL1       -0.2526
     11 C         143.4788  131.7048  154.2581 C.ar    1  UNL1        0.0016
     12 C         143.3752  131.0688  152.9036 C.ar    1  UNL1        0.0009
     13 C         144.0591  129.7611  152.6349 C.ar    1  UNL1        0.0114
     14 C         144.8466  129.0894  153.7205 C.ar    1  UNL1        0.0577
     15 CL        145.5305  127.7817  153.4517 Cl      1  UNL1       -0.0822
     16 C         144.9502  129.7255  155.0750 C.ar    1  UNL1        0.0114
     17 C         144.2663  131.0332  155.3438 C.ar    1  UNL1        0.0009
     18 C         140.7911  138.5991  156.8788 C.ar    1  UNL1        0.0876
     19 C         139.8195  138.5797  158.0214 C.ar    1  UNL1        0.0221
     20 C         139.6400  139.8006  158.8742 C.ar    1  UNL1        0.0358
     21 C         140.4321  141.0409  158.5843 C.ar    1  UNL1        0.1318
     22 N         141.4037  141.0604  157.4417 N.ar    1  UNL1       -0.2276
     23 C         141.5833  139.8395  156.5890 C.ar    1  UNL1        0.1179
     24 N         140.2526  142.2618  159.4370 N.pl3   1  UNL1       -0.2918
     25 C         140.5026  143.6785  159.0121 C.3     1  UNL1        0.0937
     26 C         140.1961  144.5727  160.1769 C.3     1  UNL1        0.0391
     27 C         139.7568  143.7086  161.3215 C.3     1  UNL1        0.0792
     28 C         139.7917  142.2804  160.8643 C.3     1  UNL1        0.1081
     29 N         139.3533  144.1884  162.6843 N.3     1  UNL1       -0.2681
     30 C         138.0550  144.3052  163.4264 C.3     1  UNL1        0.1032
     31 C         138.7829  144.8670  164.6116 C.3     1  UNL1        0.1423
     32 O         138.3795  145.3467  165.9742 O.3     1  UNL1       -0.3816
     33 C         140.0812  144.7502  163.8695 C.3     1  UNL1        0.1032
     34 H         137.4190  145.2583  166.0769 H       1  UNL1        0.2105
@<TRIPOS>BOND
     1     1     2    2
     2     2     3   ar
     3     3     4   ar
     4     4     5   ar
     5     5    11    1
     6    11    12   ar
     7    12    13   ar
     8    13    14   ar
     9    14    15    1
    10    14    16   ar
    11    16    17   ar
    12     5     6   ar
    13     6     7   ar
    14     7     8   ar
    15     8     9   ar
    16     9    10   ar
    17    10    18    1
    18    18    19   ar
    19    19    20   ar
    20    20    21   ar
    21    21    24    1
    22    24    25    1
    23    25    26    1
    24    26    27    1
    25    27    29    1
    26    29    30    1
    27    30    31    1
    28    31    32    1
    29    31    33    1
    30    27    28    1
    31    21    22   ar
    32    22    23   ar
    33    10     2   ar
    34    23    18   ar
    35     7     3   ar
    36    28    24    1
    37    17    11   ar
    38    33    29    1
    39    32    34    1
@<TRIPOS>MOLECULE
*****
 34 39 0 0 0
SMALL
GASTEIGER

@<TRIPOS>ATOM
      1 O         139.6650  145.7212  159.2597 O.2     1  UNL1       -0.2649
      2 C         140.1457  145.0835  157.9899 C.ar    1  UNL1        0.2837
      3 C         140.1542  145.8694  156.7123 C.ar    1  UNL1        0.1392
      4 C         139.7509  147.2798  156.3989 C.ar    1  UNL1        0.0256
      5 C         139.9824  147.5137  154.9355 C.ar    1  UNL1        0.0208
      6 C         140.5287  146.2479  154.3444 C.ar    1  UNL1        0.1006
      7 N         140.6349  145.2317  155.4426 N.ar    1  UNL1       -0.2221
      8 N         141.1072  143.8080  155.4505 N.ar    1  UNL1       -0.1435
      9 C         141.0987  143.0221  156.7280 C.ar    1  UNL1        0.2064
     10 N         140.6180  143.6598  157.9977 N.ar    1  UNL1       -0.2526
     11 C         139.7146  148.7895  154.1933 C.ar    1  UNL1        0.0016
     12 C         139.2079  149.9937  154.9303 C.ar    1  UNL1        0.0009
     13 C         138.9402  151.2694  154.1880 C.ar    1  UNL1        0.0114
     14 C         139.1790  151.3409  152.7089 C.ar    1  UNL1        0.0577
     15 CL        138.9112  152.6166  151.9668 Cl      1  UNL1       -0.0822
     16 C         139.6857  150.1367  151.9720 C.ar    1  UNL1        0.0114
     17 C         139.9535  148.8610  152.7142 C.ar    1  UNL1        0.0009
     18 C         140.6096  142.8738  159.2753 C.ar    1  UNL1        0.0876
     19 C         139.3184  142.3345  159.8156 C.ar    1  UNL1        0.0221
     20 C         139.3099  141.5485  161.0932 C.ar    1  UNL1        0.0358
     21 C         140.5927  141.3019  161.8305 C.ar    1  UNL1        0.1318
     22 N         141.8839  141.8411  161.2902 N.ar    1  UNL1       -0.2276
     23 C         141.8924  142.6271  160.0126 C.ar    1  UNL1        0.1179
     24 N         140.5843  140.5159  163.1080 N.pl3   1  UNL1       -0.2918
     25 C         141.1238  139.1286  163.2933 C.3     1  UNL1        0.0937
     26 C         140.9079  138.7346  164.7245 C.3     1  UNL1        0.0391
     27 C         140.2350  139.8784  165.4236 C.3     1  UNL1        0.0792
     28 C         140.0350  140.9794  164.4246 C.3     1  UNL1        0.1081
     29 N         139.8326  139.9150  166.8683 N.3     1  UNL1       -0.2681
     30 C         138.6099  139.5144  167.6392 C.3     1  UNL1        0.1032
     31 C         139.2638  139.9668  168.9113 C.3     1  UNL1        0.1423
     32 O         138.8615  140.0033  170.3558 O.3     1  UNL1       -0.3816
     33 C         140.4865  140.3674  168.1403 C.3     1  UNL1        0.1032
     34 H         137.9657  139.6435  170.4511 H       1  UNL1        0.2105
@<TRIPOS>BOND
     1     1     2    2
     2     2     3   ar
     3     3     4   ar
     4     4     5   ar
     5     5    11    1
     6    11    12   ar
     7    12    13   ar
     8    13    14   ar
     9    14    15    1
    10    14    16   ar
    11    16    17   ar
    12     5     6   ar
    13     6     7   ar
    14     7     8   ar
    15     8     9   ar
    16     9    10   ar
    17    10    18    1
    18    18    19   ar
    19    19    20   ar
    20    20    21   ar
    21    21    24    1
    22    24    25    1
    23    25    26    1
    24    26    27    1
    25    27    29    1
    26    29    30    1
    27    30    31    1
    28    31    32    1
    29    31    33    1
    30    27    28    1
    31    21    22   ar
    32    22    23   ar
    33    10     2   ar
    34    23    18   ar
    35     7     3   ar
    36    28    24    1
    37    17    11   ar
    38    33    29    1
    39    32    34    1
