@<TRIPOS>MOLECULE
*****
 29 32 0 0 0
SMALL
GASTEIGER

@<TRIPOS>ATOM
      1 C         139.4906  140.4463  169.4089 C.2     1  UNL1        0.2529
      2 O         138.6588  139.8731  170.5178 O.2     1  UNL1       -0.2698
      3 N         139.2429  140.0249  167.9908 N.am    1  UNL1       -0.2759
      4 C         138.1633  139.0305  167.6816 C.3     1  UNL1        0.0954
      5 C         137.9155  138.6092  166.2635 C.3     1  UNL1        0.0410
      6 C         138.7473  139.1823  165.1545 C.3     1  UNL1        0.0724
      7 C         139.8269  140.1767  165.4637 C.3     1  UNL1        0.0410
      8 C         140.0746  140.5981  166.8819 C.3     1  UNL1        0.0954
      9 C         144.2377  142.6528  170.1001 C.3     1  UNL1        0.1548
     10 N         142.7522  142.4549  170.0358 N.ar    1  UNL1       -0.2380
     11 N         141.7108  143.4871  170.3521 N.ar    1  UNL1       -0.1667
     12 C         140.3622  142.8604  170.1558 C.ar    1  UNL1        0.1270
     13 C         140.5702  141.4407  169.7181 C.ar    1  UNL1        0.1024
     14 C         142.0473  141.1902  169.6440 C.ar    1  UNL1        0.1408
     15 CL        142.7041  139.9013  169.2476 Cl      1  UNL1       -0.0615
     16 N         138.4995  138.7610  163.7364 N.pl3   1  UNL1       -0.3338
     17 H         138.0745  137.8932  163.5478 H       1  UNL1        0.1468
     18 C         138.8993  139.6618  162.6056 C.ar    1  UNL1        0.0507
     19 C         138.0946  140.8916  162.3060 C.ar    1  UNL1        0.0751
     20 C         138.4943  141.7924  161.1752 C.ar    1  UNL1        0.2622
     21 O         137.6896  143.0224  160.8756 O.2     1  UNL1       -0.2669
     22 N         139.6988  141.4634  160.3440 N.ar    1  UNL1       -0.2934
     23 C         140.0986  142.3642  159.2132 C.3     1  UNL1        0.1335
     24 C         140.5036  140.2335  160.6436 C.ar    1  UNL1        0.0637
     25 C         141.7081  139.9044  159.8124 C.ar    1  UNL1        0.0173
     26 C         142.5128  138.6746  160.1120 C.ar    1  UNL1        0.0015
     27 C         142.1130  137.7738  161.2428 C.ar    1  UNL1        0.0001
     28 C         140.9086  138.1028  162.0740 C.ar    1  UNL1        0.0027
     29 C         140.1039  139.3327  161.7744 C.ar    1  UNL1        0.0291
@<TRIPOS>BOND
     1     9    10    1
     2    10    11   ar
     3    11    12   ar
     4    12    13   ar
     5    13     1    1
     6     1     2    2
     7     1     3   am
     8     3     4    1
     9     4     5    1
    10     5     6    1
    11     6    16    1
    12    16    18    1
    13    18    19   ar
    14    19    20   ar
    15    20    21    2
    16    20    22   ar
    17    22    23    1
    18    22    24   ar
    19    24    25   ar
    20    25    26   ar
    21    26    27   ar
    22    27    28   ar
    23    28    29   ar
    24     6     7    1
    25     7     8    1
    26    13    14   ar
    27    14    15    1
    28    14    10   ar
    29     8     3    1
    30    29    18   ar
    31    29    24   ar
    32    16    17    1
@<TRIPOS>MOLECULE
*****
 29 32 0 0 0
SMALL
GASTEIGER

@<TRIPOS>ATOM
      1 C         139.2685  140.4170  169.2320 C.2     1  UNL1        0.2529
      2 O         138.2392  140.1550  170.2914 O.2     1  UNL1       -0.2698
      3 N         139.1780  139.7163  167.9088 N.am    1  UNL1       -0.2759
      4 C         138.0583  138.7537  167.6449 C.3     1  UNL1        0.0954
      5 C         137.9678  138.0531  166.3217 C.3     1  UNL1        0.0410
      6 C         138.9970  138.3150  165.2624 C.3     1  UNL1        0.0724
      7 C         140.1167  139.2776  165.5263 C.3     1  UNL1        0.0410
      8 C         140.2072  139.9783  166.8496 C.3     1  UNL1        0.0954
      9 C         144.0905  142.4137  170.0328 C.3     1  UNL1        0.1548
     10 N         142.6047  142.2974  169.8640 N.ar    1  UNL1       -0.2380
     11 N         141.6178  143.4244  169.9402 N.ar    1  UNL1       -0.1667
     12 C         140.2479  142.8573  169.7127 C.ar    1  UNL1        0.1270
     13 C         140.3882  141.3796  169.4960 C.ar    1  UNL1        0.1024
     14 C         141.8447  141.0336  169.5895 C.ar    1  UNL1        0.1408
     15 CL        142.4373  139.6643  169.4355 Cl      1  UNL1       -0.0615
     16 N         138.9065  137.6144  163.9392 N.pl3   1  UNL1       -0.3338
     17 H         138.2435  136.8990  163.8053 H       1  UNL1        0.1468
     18 C         139.8262  138.0036  162.8200 C.ar    1  UNL1        0.0507
     19 C         141.2822  137.6496  162.8880 C.ar    1  UNL1        0.0751
     20 C         142.2018  138.0389  161.7688 C.ar    1  UNL1        0.2622
     21 O         143.6579  137.6848  161.8369 O.2     1  UNL1       -0.2669
     22 N         141.6655  138.7822  160.5815 N.ar    1  UNL1       -0.2934
     23 C         142.5851  139.1715  159.4622 C.3     1  UNL1        0.1335
     24 C         140.2094  139.1363  160.5133 C.ar    1  UNL1        0.0637
     25 C         139.6731  139.8796  159.3260 C.ar    1  UNL1        0.0173
     26 C         138.2171  140.2336  159.2580 C.ar    1  UNL1        0.0015
     27 C         137.2974  139.8443  160.3772 C.ar    1  UNL1        0.0001
     28 C         137.8338  139.1010  161.5645 C.ar    1  UNL1        0.0027
     29 C         139.2898  138.7470  161.6326 C.ar    1  UNL1        0.0291
@<TRIPOS>BOND
     1     9    10    1
     2    10    11   ar
     3    11    12   ar
     4    12    13   ar
     5    13     1    1
     6     1     2    2
     7     1     3   am
     8     3     4    1
     9     4     5    1
    10     5     6    1
    11     6    16    1
    12    16    18    1
    13    18    19   ar
    14    19    20   ar
    15    20    21    2
    16    20    22   ar
    17    22    23    1
    18    22    24   ar
    19    24    25   ar
    20    25    26   ar
    21    26    27   ar
    22    27    28   ar
    23    28    29   ar
    24     6     7    1
    25     7     8    1
    26    13    14   ar
    27    14    15    1
    28    14    10   ar
    29     8     3    1
    30    29    18   ar
    31    29    24   ar
    32    16    17    1
@<TRIPOS>MOLECULE
*****
 29 32 0 0 0
SMALL
GASTEIGER

@<TRIPOS>ATOM
      1 C         140.1372  145.0346  161.1365 C.2     1  UNL1        0.2529
      2 O         139.2851  146.1947  161.5588 O.2     1  UNL1       -0.2698
      3 N         140.8269  144.1949  162.1705 N.am    1  UNL1       -0.2759
      4 C         140.6646  144.5153  163.6268 C.3     1  UNL1        0.0954
      5 C         141.3544  143.6757  164.6609 C.3     1  UNL1        0.0410
      6 C         142.2064  142.5156  164.2385 C.3     1  UNL1        0.0724
      7 C         142.3687  142.1952  162.7821 C.3     1  UNL1        0.0410
      8 C         141.6789  143.0350  161.7481 C.3     1  UNL1        0.0954
      9 C         139.6004  142.7479  156.4075 C.3     1  UNL1        0.1548
     10 N         140.0527  143.6631  157.5064 N.ar    1  UNL1       -0.2380
     11 N         141.0455  144.7794  157.3714 N.ar    1  UNL1       -0.1667
     12 C         141.1981  145.4291  158.7149 C.ar    1  UNL1        0.1270
     13 C         140.2994  144.7142  159.6801 C.ar    1  UNL1        0.1024
     14 C         139.5916  143.6229  158.9332 C.ar    1  UNL1        0.1408
     15 CL        138.5972  142.6602  159.5115 Cl      1  UNL1       -0.0615
     16 N         142.8962  141.6759  165.2725 N.pl3   1  UNL1       -0.3338
     17 H         143.6674  141.1187  165.0196 H       1  UNL1        0.1468
     18 C         142.4109  141.6852  166.6918 C.ar    1  UNL1        0.0507
     19 C         143.1784  142.4321  167.7420 C.ar    1  UNL1        0.0751
     20 C         142.6931  142.4414  169.1613 C.ar    1  UNL1        0.2622
     21 O         143.4608  143.1883  170.2116 O.2     1  UNL1       -0.2669
     22 N         141.4402  141.7038  169.5304 N.ar    1  UNL1       -0.2934
     23 C         140.9549  141.7131  170.9497 C.3     1  UNL1        0.1335
     24 C         140.6726  140.9569  168.4801 C.ar    1  UNL1        0.0637
     25 C         139.4197  140.2194  168.8492 C.ar    1  UNL1        0.0173
     26 C         138.6522  139.4725  167.7989 C.ar    1  UNL1        0.0015
     27 C         139.1375  139.4632  166.3797 C.ar    1  UNL1        0.0001
     28 C         140.3904  140.2008  166.0106 C.ar    1  UNL1        0.0027
     29 C         141.1579  140.9476  167.0608 C.ar    1  UNL1        0.0291
@<TRIPOS>BOND
     1     9    10    1
     2    10    11   ar
     3    11    12   ar
     4    12    13   ar
     5    13     1    1
     6     1     2    2
     7     1     3   am
     8     3     4    1
     9     4     5    1
    10     5     6    1
    11     6    16    1
    12    16    18    1
    13    18    19   ar
    14    19    20   ar
    15    20    21    2
    16    20    22   ar
    17    22    23    1
    18    22    24   ar
    19    24    25   ar
    20    25    26   ar
    21    26    27   ar
    22    27    28   ar
    23    28    29   ar
    24     6     7    1
    25     7     8    1
    26    13    14   ar
    27    14    15    1
    28    14    10   ar
    29     8     3    1
    30    29    18   ar
    31    29    24   ar
    32    16    17    1
@<TRIPOS>MOLECULE
*****
 29 32 0 0 0
SMALL
GASTEIGER

@<TRIPOS>ATOM
      1 C         139.9561  140.2204  169.2652 C.2     1  UNL1        0.2529
      2 O         138.8588  140.4362  170.2649 O.2     1  UNL1       -0.2698
      3 N         139.6325  139.6949  167.8981 N.am    1  UNL1       -0.2759
      4 C         138.2116  139.3852  167.5305 C.3     1  UNL1        0.0954
      5 C         137.8880  138.8597  166.1634 C.3     1  UNL1        0.0410
      6 C         138.9854  138.6439  165.1637 C.3     1  UNL1        0.0724
      7 C         140.4063  138.9536  165.5312 C.3     1  UNL1        0.0410
      8 C         140.7299  139.4791  166.8985 C.3     1  UNL1        0.0954
      9 C         144.4827  142.8162  170.0731 C.3     1  UNL1        0.1548
     10 N         143.4577  141.7233  170.0041 N.ar    1  UNL1       -0.2380
     11 N         143.6696  140.2900  170.3925 N.ar    1  UNL1       -0.1667
     12 C         142.3837  139.5525  170.1630 C.ar    1  UNL1        0.1270
     13 C         141.3770  140.5301  169.6327 C.ar    1  UNL1        0.1024
     14 C         142.0408  141.8716  169.5345 C.ar    1  UNL1        0.1408
     15 CL        141.4002  143.1391  169.0516 Cl      1  UNL1       -0.0615
     16 N         138.6618  138.1184  163.7966 N.pl3   1  UNL1       -0.3338
     17 H         138.1473  137.2848  163.6987 H       1  UNL1        0.1468
     18 C         139.1220  138.8631  162.5785 C.ar    1  UNL1        0.0507
     19 C         139.9800  138.1751  161.5585 C.ar    1  UNL1        0.0751
     20 C         140.4402  138.9198  160.3404 C.ar    1  UNL1        0.2622
     21 O         141.2982  138.2318  159.3204 O.2     1  UNL1       -0.2669
     22 N         140.0424  140.3525  160.1424 N.ar    1  UNL1       -0.2934
     23 C         140.5026  141.0971  158.9244 C.3     1  UNL1        0.1335
     24 C         139.1844  141.0405  161.1625 C.ar    1  UNL1        0.0637
     25 C         138.7866  142.4732  160.9645 C.ar    1  UNL1        0.0173
     26 C         137.9286  143.1611  161.9845 C.ar    1  UNL1        0.0015
     27 C         137.4684  142.4164  163.2025 C.ar    1  UNL1        0.0001
     28 C         137.8662  140.9838  163.4006 C.ar    1  UNL1        0.0027
     29 C         138.7242  140.2958  162.3805 C.ar    1  UNL1        0.0291
@<TRIPOS>BOND
     1     9    10    1
     2    10    11   ar
     3    11    12   ar
     4    12    13   ar
     5    13     1    1
     6     1     2    2
     7     1     3   am
     8     3     4    1
     9     4     5    1
    10     5     6    1
    11     6    16    1
    12    16    18    1
    13    18    19   ar
    14    19    20   ar
    15    20    21    2
    16    20    22   ar
    17    22    23    1
    18    22    24   ar
    19    24    25   ar
    20    25    26   ar
    21    26    27   ar
    22    27    28   ar
    23    28    29   ar
    24     6     7    1
    25     7     8    1
    26    13    14   ar
    27    14    15    1
    28    14    10   ar
    29     8     3    1
    30    29    18   ar
    31    29    24   ar
    32    16    17    1
@<TRIPOS>MOLECULE
*****
 29 32 0 0 0
SMALL
GASTEIGER

@<TRIPOS>ATOM
      1 C         142.6855  139.7669  168.6523 C.2     1  UNL1        0.2529
      2 O         143.1323  138.5538  169.4133 O.2     1  UNL1       -0.2698
      3 N         142.7385  139.7735  167.1533 N.am    1  UNL1       -0.2759
      4 C         143.2384  138.5671  166.4151 C.3     1  UNL1        0.0954
      5 C         143.2914  138.5737  164.9161 C.3     1  UNL1        0.0410
      6 C         142.8447  139.7867  164.1552 C.3     1  UNL1        0.0724
      7 C         142.3448  140.9931  164.8933 C.3     1  UNL1        0.0410
      8 C         142.2918  140.9865  166.3924 C.3     1  UNL1        0.0954
      9 C         139.4816  143.2583  170.9816 C.3     1  UNL1        0.1548
     10 N         140.7129  142.5781  170.4611 N.ar    1  UNL1       -0.2380
     11 N         142.1200  143.0813  170.5914 N.ar    1  UNL1       -0.1667
     12 C         143.0302  142.0895  169.9297 C.ar    1  UNL1        0.1270
     13 C         142.1856  140.9733  169.3904 C.ar    1  UNL1        0.1024
     14 C         140.7535  141.2753  169.7188 C.ar    1  UNL1        0.1408
     15 CL        139.5698  140.4239  169.3668 Cl      1  UNL1       -0.0615
     16 N         142.8977  139.7934  162.6561 N.pl3   1  UNL1       -0.3338
     17 H         143.6546  139.3718  162.1885 H       1  UNL1        0.1468
     18 C         141.7976  140.4423  161.8696 C.ar    1  UNL1        0.0507
     19 C         142.0532  141.7303  161.1445 C.ar    1  UNL1        0.0751
     20 C         140.9531  142.3792  160.3579 C.ar    1  UNL1        0.2622
     21 O         141.2087  143.6673  159.6329 O.2     1  UNL1       -0.2669
     22 N         139.5975  141.7402  160.2964 N.ar    1  UNL1       -0.2934
     23 C         138.4974  142.3891  159.5098 C.3     1  UNL1        0.1335
     24 C         139.3419  140.4521  161.0215 C.ar    1  UNL1        0.0637
     25 C         137.9862  139.8131  160.9600 C.ar    1  UNL1        0.0173
     26 C         137.7307  138.5251  161.6850 C.ar    1  UNL1        0.0015
     27 C         138.8308  137.8761  162.4716 C.ar    1  UNL1        0.0001
     28 C         140.1864  138.5152  162.5331 C.ar    1  UNL1        0.0027
     29 C         140.4419  139.8032  161.8081 C.ar    1  UNL1        0.0291
@<TRIPOS>BOND
     1     9    10    1
     2    10    11   ar
     3    11    12   ar
     4    12    13   ar
     5    13     1    1
     6     1     2    2
     7     1     3   am
     8     3     4    1
     9     4     5    1
    10     5     6    1
    11     6    16    1
    12    16    18    1
    13    18    19   ar
    14    19    20   ar
    15    20    21    2
    16    20    22   ar
    17    22    23    1
    18    22    24   ar
    19    24    25   ar
    20    25    26   ar
    21    26    27   ar
    22    27    28   ar
    23    28    29   ar
    24     6     7    1
    25     7     8    1
    26    13    14   ar
    27    14    15    1
    28    14    10   ar
    29     8     3    1
    30    29    18   ar
    31    29    24   ar
    32    16    17    1
@<TRIPOS>MOLECULE
*****
 29 32 0 0 0
SMALL
GASTEIGER

@<TRIPOS>ATOM
      1 C         140.5869  139.4100  156.9800 C.2     1  UNL1        0.2529
      2 O         140.6892  140.4732  155.9268 O.2     1  UNL1       -0.2698
      3 N         139.7661  139.6514  158.2121 N.am    1  UNL1       -0.2759
      4 C         139.0476  140.9559  158.3909 C.3     1  UNL1        0.0954
      5 C         138.2268  141.1973  159.6230 C.3     1  UNL1        0.0410
      6 C         138.1245  140.1342  160.6763 C.3     1  UNL1        0.0724
      7 C         138.8430  138.8297  160.4974 C.3     1  UNL1        0.0410
      8 C         139.6638  138.5883  159.2653 C.3     1  UNL1        0.0954
      9 C         141.7030  134.4421  155.5818 C.3     1  UNL1        0.1548
     10 N         141.8184  135.8220  156.1585 N.ar    1  UNL1       -0.2380
     11 N         143.0038  136.3741  156.8934 N.ar    1  UNL1       -0.1667
     12 C         142.6868  137.7854  157.2907 C.ar    1  UNL1        0.1270
     13 C         141.3054  138.1055  156.8012 C.ar    1  UNL1        0.1024
     14 C         140.7688  136.8921  156.1015 C.ar    1  UNL1        0.1408
     15 CL        139.4195  136.7701  155.4578 Cl      1  UNL1       -0.0615
     16 N         137.3037  140.3756  161.9083 N.pl3   1  UNL1       -0.3338
     17 H         136.3207  140.3617  161.8555 H       1  UNL1        0.1468
     18 C         137.9806  140.6381  163.2209 C.ar    1  UNL1        0.0507
     19 C         138.3469  139.4932  164.1181 C.ar    1  UNL1        0.0751
     20 C         139.0238  139.7557  165.4307 C.ar    1  UNL1        0.2622
     21 O         139.3901  138.6107  166.3279 O.2     1  UNL1       -0.2669
     22 N         139.3343  141.1631  165.8461 N.ar    1  UNL1       -0.2934
     23 C         140.0112  141.4257  167.1587 C.3     1  UNL1        0.1335
     24 C         138.9680  142.3082  164.9490 C.ar    1  UNL1        0.0637
     25 C         139.2785  143.7156  165.3644 C.ar    1  UNL1        0.0173
     26 C         138.9122  144.8605  164.4672 C.ar    1  UNL1        0.0015
     27 C         138.2354  144.5980  163.1546 C.ar    1  UNL1        0.0001
     28 C         137.9248  143.1905  162.7392 C.ar    1  UNL1        0.0027
     29 C         138.2911  142.0456  163.6364 C.ar    1  UNL1        0.0291
@<TRIPOS>BOND
     1     9    10    1
     2    10    11   ar
     3    11    12   ar
     4    12    13   ar
     5    13     1    1
     6     1     2    2
     7     1     3   am
     8     3     4    1
     9     4     5    1
    10     5     6    1
    11     6    16    1
    12    16    18    1
    13    18    19   ar
    14    19    20   ar
    15    20    21    2
    16    20    22   ar
    17    22    23    1
    18    22    24   ar
    19    24    25   ar
    20    25    26   ar
    21    26    27   ar
    22    27    28   ar
    23    28    29   ar
    24     6     7    1
    25     7     8    1
    26    13    14   ar
    27    14    15    1
    28    14    10   ar
    29     8     3    1
    30    29    18   ar
    31    29    24   ar
    32    16    17    1
@<TRIPOS>MOLECULE
*****
 29 32 0 0 0
SMALL
GASTEIGER

@<TRIPOS>ATOM
      1 C         139.7358  139.9479  168.5312 C.2     1  UNL1        0.2529
      2 O         138.4867  139.7734  169.3432 O.2     1  UNL1       -0.2698
      3 N         139.7291  139.6261  167.0662 N.am    1  UNL1       -0.2759
      4 C         138.4733  139.1298  166.4131 C.3     1  UNL1        0.0954
      5 C         138.4665  138.8080  164.9481 C.3     1  UNL1        0.0410
      6 C         139.7157  138.9825  164.1361 C.3     1  UNL1        0.0724
      7 C         140.9715  139.4789  164.7892 C.3     1  UNL1        0.0410
      8 C         140.9782  139.8007  166.2543 C.3     1  UNL1        0.0954
      9 C         143.4135  143.1461  170.5627 C.3     1  UNL1        0.1548
     10 N         142.6821  141.9144  170.1181 N.ar    1  UNL1       -0.2380
     11 N         143.1663  140.5018  170.2606 N.ar    1  UNL1       -0.1667
     12 C         142.1215  139.5932  169.6836 C.ar    1  UNL1        0.1270
     13 C         140.9917  140.4443  169.1843 C.ar    1  UNL1        0.1024
     14 C         141.3382  141.8788  169.4529 C.ar    1  UNL1        0.1408
     15 CL        140.4896  143.0688  169.1155 Cl      1  UNL1       -0.0615
     16 N         139.7089  138.6607  162.6710 N.pl3   1  UNL1       -0.3338
     17 H         139.0876  137.9831  162.3187 H       1  UNL1        0.1468
     18 C         140.6488  139.3712  161.7427 C.ar    1  UNL1        0.0507
     19 C         141.9726  138.7550  161.3994 C.ar    1  UNL1        0.0751
     20 C         142.9125  139.4655  160.4711 C.ar    1  UNL1        0.2622
     21 O         144.2363  138.8492  160.1278 O.2     1  UNL1       -0.2669
     22 N         142.5286  140.7923  159.8861 N.ar    1  UNL1       -0.2934
     23 C         143.4685  141.5028  158.9578 C.3     1  UNL1        0.1335
     24 C         141.2048  141.4086  160.2294 C.ar    1  UNL1        0.0637
     25 C         140.8210  142.7354  159.6444 C.ar    1  UNL1        0.0173
     26 C         139.4973  143.3516  159.9877 C.ar    1  UNL1        0.0015
     27 C         138.5574  142.6411  160.9160 C.ar    1  UNL1        0.0001
     28 C         138.9412  141.3143  161.5010 C.ar    1  UNL1        0.0027
     29 C         140.2649  140.6981  161.1577 C.ar    1  UNL1        0.0291
@<TRIPOS>BOND
     1     9    10    1
     2    10    11   ar
     3    11    12   ar
     4    12    13   ar
     5    13     1    1
     6     1     2    2
     7     1     3   am
     8     3     4    1
     9     4     5    1
    10     5     6    1
    11     6    16    1
    12    16    18    1
    13    18    19   ar
    14    19    20   ar
    15    20    21    2
    16    20    22   ar
    17    22    23    1
    18    22    24   ar
    19    24    25   ar
    20    25    26   ar
    21    26    27   ar
    22    27    28   ar
    23    28    29   ar
    24     6     7    1
    25     7     8    1
    26    13    14   ar
    27    14    15    1
    28    14    10   ar
    29     8     3    1
    30    29    18   ar
    31    29    24   ar
    32    16    17    1
@<TRIPOS>MOLECULE
*****
 29 32 0 0 0
SMALL
GASTEIGER

@<TRIPOS>ATOM
      1 C         143.1565  138.8550  158.2686 C.2     1  UNL1        0.2529
      2 O         144.0524  139.8622  157.6105 O.2     1  UNL1       -0.2698
      3 N         143.1552  138.7149  159.7620 N.am    1  UNL1       -0.2759
      4 C         144.0498  139.5820  160.5974 C.3     1  UNL1        0.0954
      5 C         144.0485  139.4419  162.0908 C.3     1  UNL1        0.0410
      6 C         143.1526  138.4347  162.7489 C.3     1  UNL1        0.0724
      7 C         142.2580  137.5676  161.9135 C.3     1  UNL1        0.0410
      8 C         142.2593  137.7077  160.4200 C.3     1  UNL1        0.0954
      9 C         138.9749  137.0659  155.5865 C.3     1  UNL1        0.1548
     10 N         140.3398  137.1655  156.2003 N.ar    1  UNL1       -0.2380
     11 N         141.4309  136.1416  156.0948 N.ar    1  UNL1       -0.1667
     12 C         142.6189  136.6498  156.8567 C.ar    1  UNL1        0.1270
     13 C         142.2620  137.9879  157.4332 C.ar    1  UNL1        0.1024
     14 C         140.8535  138.3066  157.0275 C.ar    1  UNL1        0.1408
     15 CL        140.0922  139.5484  157.3860 Cl      1  UNL1       -0.0615
     16 N         143.1512  138.2946  164.2423 N.pl3   1  UNL1       -0.3338
     17 H         143.5739  137.5116  164.6636 H       1  UNL1        0.1468
     18 C         142.5060  139.3475  165.0938 C.ar    1  UNL1        0.0507
     19 C         143.3091  140.5198  165.5741 C.ar    1  UNL1        0.0751
     20 C         142.6638  141.5727  166.4256 C.ar    1  UNL1        0.2622
     21 O         143.4670  142.7450  166.9058 O.2     1  UNL1       -0.2669
     22 N         141.2154  141.4533  166.7968 N.ar    1  UNL1       -0.2934
     23 C         140.5701  142.5061  167.6483 C.3     1  UNL1        0.1335
     24 C         140.4122  140.2809  166.3165 C.ar    1  UNL1        0.0637
     25 C         138.9638  140.1615  166.6878 C.ar    1  UNL1        0.0173
     26 C         138.1607  138.9892  166.2075 C.ar    1  UNL1        0.0015
     27 C         138.8060  137.9363  165.3560 C.ar    1  UNL1        0.0001
     28 C         140.2544  138.0557  164.9848 C.ar    1  UNL1        0.0027
     29 C         141.0575  139.2280  165.4650 C.ar    1  UNL1        0.0291
@<TRIPOS>BOND
     1     9    10    1
     2    10    11   ar
     3    11    12   ar
     4    12    13   ar
     5    13     1    1
     6     1     2    2
     7     1     3   am
     8     3     4    1
     9     4     5    1
    10     5     6    1
    11     6    16    1
    12    16    18    1
    13    18    19   ar
    14    19    20   ar
    15    20    21    2
    16    20    22   ar
    17    22    23    1
    18    22    24   ar
    19    24    25   ar
    20    25    26   ar
    21    26    27   ar
    22    27    28   ar
    23    28    29   ar
    24     6     7    1
    25     7     8    1
    26    13    14   ar
    27    14    15    1
    28    14    10   ar
    29     8     3    1
    30    29    18   ar
    31    29    24   ar
    32    16    17    1
@<TRIPOS>MOLECULE
*****
 29 32 0 0 0
SMALL
GASTEIGER

@<TRIPOS>ATOM
      1 C         140.4935  139.0657  156.3000 C.2     1  UNL1        0.2529
      2 O         140.1382  139.8592  155.0776 O.2     1  UNL1       -0.2698
      3 N         139.7312  139.2713  157.5754 N.am    1  UNL1       -0.2759
      4 C         138.6137  140.2705  157.6285 C.3     1  UNL1        0.0954
      5 C         137.8515  140.4761  158.9039 C.3     1  UNL1        0.0410
      6 C         138.2067  139.6826  160.1263 C.3     1  UNL1        0.0724
      7 C         139.3243  138.6834  160.0732 C.3     1  UNL1        0.0410
      8 C         140.0865  138.4778  158.7977 C.3     1  UNL1        0.0954
      9 C         143.2288  134.6317  155.4407 C.3     1  UNL1        0.1548
     10 N         142.8683  136.0284  155.8519 N.ar    1  UNL1       -0.2380
     11 N         143.7931  137.0295  156.4785 N.ar    1  UNL1       -0.1667
     12 C         143.0161  138.2891  156.7227 C.ar    1  UNL1        0.1270
     13 C         141.6110  138.0665  156.2469 C.ar    1  UNL1        0.1024
     14 C         141.5197  136.6694  155.7088 C.ar    1  UNL1        0.1408
     15 CL        140.2948  136.0260  155.1293 Cl      1  UNL1       -0.0615
     16 N         137.4445  139.8882  161.4017 N.pl3   1  UNL1       -0.3338
     17 H         136.6571  139.3314  161.5998 H       1  UNL1        0.1468
     18 C         137.8819  140.9422  162.3753 C.ar    1  UNL1        0.0507
     19 C         137.7702  142.3928  162.0105 C.ar    1  UNL1        0.0751
     20 C         138.2076  143.4468  162.9841 C.ar    1  UNL1        0.2622
     21 O         138.0959  144.8975  162.6193 O.2     1  UNL1       -0.2669
     22 N         138.7567  143.0501  164.3224 N.ar    1  UNL1       -0.2934
     23 C         139.1941  144.1041  165.2959 C.3     1  UNL1        0.1335
     24 C         138.8685  141.5994  164.6872 C.ar    1  UNL1        0.0637
     25 C         139.4176  141.2027  166.0254 C.ar    1  UNL1        0.0173
     26 C         139.5293  139.7520  166.3902 C.ar    1  UNL1        0.0015
     27 C         139.0919  138.6981  165.4166 C.ar    1  UNL1        0.0001
     28 C         138.5428  139.0947  164.0783 C.ar    1  UNL1        0.0027
     29 C         138.4311  140.5454  163.7136 C.ar    1  UNL1        0.0291
@<TRIPOS>BOND
     1     9    10    1
     2    10    11   ar
     3    11    12   ar
     4    12    13   ar
     5    13     1    1
     6     1     2    2
     7     1     3   am
     8     3     4    1
     9     4     5    1
    10     5     6    1
    11     6    16    1
    12    16    18    1
    13    18    19   ar
    14    19    20   ar
    15    20    21    2
    16    20    22   ar
    17    22    23    1
    18    22    24   ar
    19    24    25   ar
    20    25    26   ar
    21    26    27   ar
    22    27    28   ar
    23    28    29   ar
    24     6     7    1
    25     7     8    1
    26    13    14   ar
    27    14    15    1
    28    14    10   ar
    29     8     3    1
    30    29    18   ar
    31    29    24   ar
    32    16    17    1
