@<TRIPOS>MOLECULE
*****
 39 43 0 0 0
SMALL
GASTEIGER

@<TRIPOS>ATOM
      1 C         139.2984  140.6042  164.5593 C.3     1  UNL1        0.0822
      2 C         139.5675  140.5616  166.0344 C.ar    1  UNL1        0.0375
      3 C         140.6277  141.4404  166.6291 C.ar    1  UNL1        0.0023
      4 C         140.8968  141.3977  168.1042 C.ar    1  UNL1        0.0181
      5 C         141.9570  142.2765  168.6988 C.ar    1  UNL1        0.0082
      6 C         142.2261  142.2339  170.1738 C.ar    1  UNL1        0.0347
      7 BR        143.2863  143.1127  170.7686 Br      1  UNL1       -0.0490
      8 C         141.4350  141.3124  171.0542 C.ar    1  UNL1        0.0082
      9 C         140.3748  140.4336  170.4595 C.ar    1  UNL1        0.0197
     10 C         140.1057  140.4763  168.9845 C.ar    1  UNL1        0.0844
     11 N         139.0455  139.5974  168.3898 N.ar    1  UNL1       -0.2119
     12 C         138.7764  139.6401  166.9148 C.ar    1  UNL1        0.2211
     13 O         137.7162  138.7613  166.3200 O.3     1  UNL1       -0.4563
     14 C         137.8959  137.2721  166.3085 C.3     1  UNL1        0.2542
     15 C         138.8221  141.8749  163.9203 C.ar    1  UNL1        0.0215
     16 C         138.0554  142.8793  164.7285 C.ar    1  UNL1       -0.0007
     17 C         137.5791  144.1501  164.0895 C.ar    1  UNL1        0.0030
     18 C         137.8695  144.4164  162.6422 C.ar    1  UNL1        0.0402
     19 C         138.6363  143.4120  161.8339 C.ar    1  UNL1        0.1761
     20 C         139.1125  142.1413  162.4729 C.ar    1  UNL1        0.1728
     21 O         139.8401  141.3433  161.4319 O.3     1  UNL1       -0.4349
     22 C         139.8136  142.1209  160.1495 C.3     1  UNL1        0.4294
     23 O         139.0695  143.3994  160.3979 O.3     1  UNL1       -0.4346
     24 C         139.5055  139.3761  163.7233 C.3     1  UNL1        0.1321
     25 O         138.0549  139.3912  163.3418 O.3     1  UNL1       -0.3805
     26 H         137.8686  138.6456  162.7499 H       1  UNL1        0.2108
     27 C         143.3446  140.3645  163.9093 C.ar    1  UNL1        0.2247
     28 C         143.8573  139.3310  164.8680 C.ar    1  UNL1        0.0577
     29 C         142.9194  138.3126  165.4451 C.ar    1  UNL1        0.0061
     30 C         141.4688  138.3276  165.0635 C.ar    1  UNL1        0.0173
     31 C         140.9561  139.3611  164.1049 C.ar    1  UNL1        0.0868
     32 N         141.8940  140.3795  163.5278 N.ar    1  UNL1       -0.2137
     33 C         145.6631  141.5370  163.8982 C.3     1  UNL1        0.2542
     34 O         144.2825  141.3830  163.3322 O.3     1  UNL1       -0.4561
     35 C         139.7127  138.1480  162.8874 C.3     1  UNL1        0.0506
     36 C         139.2291  138.1167  161.4678 C.3     1  UNL1        0.0750
     37 N         140.1995  138.3101  160.3405 N.3     1  UNL1       -0.2702
     38 C         141.6752  138.2454  160.6017 C.3     1  UNL1        0.0897
     39 C         139.6943  138.5682  158.9520 C.3     1  UNL1        0.0897
@<TRIPOS>BOND
     1    33    34    1
     2    34    27    1
     3    27    28   ar
     4    28    29   ar
     5    29    30   ar
     6    30    31   ar
     7    31    24    1
     8    24    25    1
     9    24    35    1
    10    35    36    1
    11    36    37    1
    12    37    38    1
    13    37    39    1
    14    24     1    1
    15     1     2    1
    16     2     3   ar
    17     3     4   ar
    18     4     5   ar
    19     5     6   ar
    20     6     7    1
    21     6     8   ar
    22     8     9   ar
    23     9    10   ar
    24    10    11   ar
    25    11    12   ar
    26    12    13    1
    27    13    14    1
    28     1    15    1
    29    15    16   ar
    30    16    17   ar
    31    17    18   ar
    32    18    19   ar
    33    19    20   ar
    34    20    21    1
    35    21    22    1
    36    22    23    1
    37    31    32   ar
    38    32    27   ar
    39    12     2   ar
    40    20    15   ar
    41    10     4   ar
    42    23    19    1
    43    25    26    1
@<TRIPOS>MOLECULE
*****
 39 43 0 0 0
SMALL
GASTEIGER

@<TRIPOS>ATOM
      1 C         141.7152  141.5656  164.5504 C.3     1  UNL1        0.0822
      2 C         142.0945  140.5639  163.5001 C.ar    1  UNL1        0.0375
      3 C         141.4145  140.5848  162.1634 C.ar    1  UNL1        0.0023
      4 C         141.7938  139.5831  161.1131 C.ar    1  UNL1        0.0181
      5 C         141.1138  139.6040  159.7764 C.ar    1  UNL1        0.0082
      6 C         141.4931  138.6024  158.7262 C.ar    1  UNL1        0.0347
      7 BR        140.8130  138.6232  157.3894 Br      1  UNL1       -0.0490
      8 C         142.5524  137.5798  159.0129 C.ar    1  UNL1        0.0082
      9 C         143.2325  137.5589  160.3497 C.ar    1  UNL1        0.0197
     10 C         142.8532  138.5606  161.3998 C.ar    1  UNL1        0.0844
     11 N         143.5332  138.5397  162.7367 N.ar    1  UNL1       -0.2119
     12 C         143.1539  139.5413  163.7868 C.ar    1  UNL1        0.2211
     13 O         143.8340  139.5205  165.1237 O.3     1  UNL1       -0.4563
     14 C         143.5627  138.4020  166.0857 C.3     1  UNL1        0.2542
     15 C         140.9985  141.1180  165.7896 C.ar    1  UNL1        0.0215
     16 C         139.7295  140.3261  165.6774 C.ar    1  UNL1       -0.0007
     17 C         139.0127  139.8785  166.9167 C.ar    1  UNL1        0.0030
     18 C         139.5649  140.2228  168.2682 C.ar    1  UNL1        0.0402
     19 C         140.8339  141.0147  168.3804 C.ar    1  UNL1        0.1761
     20 C         141.5507  141.4622  167.1411 C.ar    1  UNL1        0.1728
     21 O         142.7722  142.2244  167.5619 O.3     1  UNL1       -0.4349
     22 C         142.8103  142.2478  169.0612 C.3     1  UNL1        0.4294
     23 O         141.6124  141.5001  169.5671 O.3     1  UNL1       -0.4346
     24 C         142.0528  143.0148  164.3612 C.3     1  UNL1        0.1321
     25 O         143.5092  142.6975  164.5290 O.3     1  UNL1       -0.3805
     26 H         144.0289  143.5127  164.4499 H       1  UNL1        0.2108
     27 C         138.4265  143.2544  162.7666 C.ar    1  UNL1        0.2247
     28 C         137.6835  143.9666  163.8577 C.ar    1  UNL1        0.0577
     29 C         138.3969  144.3616  165.1167 C.ar    1  UNL1        0.0061
     30 C         139.8533  144.0443  165.2845 C.ar    1  UNL1        0.0173
     31 C         140.5963  143.3321  164.1934 C.ar    1  UNL1        0.0868
     32 N         139.8829  142.9371  162.9344 N.ar    1  UNL1       -0.2137
     33 C         138.4990  142.4944  160.2832 C.3     1  UNL1        0.2542
     34 O         137.7131  142.8594  161.5075 O.3     1  UNL1       -0.4561
     35 C         142.3903  144.4640  164.1720 C.3     1  UNL1        0.0506
     36 C         143.2569  144.8886  163.0238 C.3     1  UNL1        0.0750
     37 N         143.2110  144.1318  161.7295 N.3     1  UNL1       -0.2702
     38 C         142.0672  144.3368  160.7810 C.3     1  UNL1        0.0897
     39 C         144.3088  143.1699  161.3838 C.3     1  UNL1        0.0897
@<TRIPOS>BOND
     1    33    34    1
     2    34    27    1
     3    27    28   ar
     4    28    29   ar
     5    29    30   ar
     6    30    31   ar
     7    31    24    1
     8    24    25    1
     9    24    35    1
    10    35    36    1
    11    36    37    1
    12    37    38    1
    13    37    39    1
    14    24     1    1
    15     1     2    1
    16     2     3   ar
    17     3     4   ar
    18     4     5   ar
    19     5     6   ar
    20     6     7    1
    21     6     8   ar
    22     8     9   ar
    23     9    10   ar
    24    10    11   ar
    25    11    12   ar
    26    12    13    1
    27    13    14    1
    28     1    15    1
    29    15    16   ar
    30    16    17   ar
    31    17    18   ar
    32    18    19   ar
    33    19    20   ar
    34    20    21    1
    35    21    22    1
    36    22    23    1
    37    31    32   ar
    38    32    27   ar
    39    12     2   ar
    40    20    15   ar
    41    10     4   ar
    42    23    19    1
    43    25    26    1
@<TRIPOS>MOLECULE
*****
 39 43 0 0 0
SMALL
GASTEIGER

@<TRIPOS>ATOM
      1 C         140.9059  141.5663  165.1984 C.3     1  UNL1        0.0822
      2 C         140.7042  142.5414  164.0764 C.ar    1  UNL1        0.0375
      3 C         141.4923  142.3989  162.8081 C.ar    1  UNL1        0.0023
      4 C         141.2906  143.3739  161.6862 C.ar    1  UNL1        0.0181
      5 C         142.0787  143.2315  160.4179 C.ar    1  UNL1        0.0082
      6 C         141.8769  144.2065  159.2961 C.ar    1  UNL1        0.0347
      7 BR        142.6650  144.0641  158.0277 Br      1  UNL1       -0.0490
      8 C         140.8871  145.3240  159.4425 C.ar    1  UNL1        0.0082
      9 C         140.0990  145.4665  160.7108 C.ar    1  UNL1        0.0197
     10 C         140.3007  144.4914  161.8326 C.ar    1  UNL1        0.0844
     11 N         139.5126  144.6339  163.1010 N.ar    1  UNL1       -0.2119
     12 C         139.7144  143.6589  164.2228 C.ar    1  UNL1        0.2211
     13 O         138.9262  143.8013  165.4912 O.3     1  UNL1       -0.4563
     14 C         138.3465  145.1323  165.8685 C.3     1  UNL1        0.2542
     15 C         140.1680  140.2604  165.1988 C.ar    1  UNL1        0.0215
     16 C         139.1258  139.9883  166.2426 C.ar    1  UNL1       -0.0007
     17 C         138.3878  138.6823  166.2431 C.ar    1  UNL1        0.0030
     18 C         138.6922  137.6485  165.1998 C.ar    1  UNL1        0.0402
     19 C         139.7345  137.9206  164.1560 C.ar    1  UNL1        0.1761
     20 C         140.4724  139.2266  164.1555 C.ar    1  UNL1        0.1728
     21 O         141.4399  139.2119  163.0093 O.3     1  UNL1       -0.4349
     22 C         141.2999  137.8969  162.3014 C.3     1  UNL1        0.4294
     23 O         140.2459  137.0988  163.0101 O.3     1  UNL1       -0.4346
     24 C         141.8455  141.8973  166.3198 C.3     1  UNL1        0.1321
     25 O         140.7879  142.7514  166.9538 O.3     1  UNL1       -0.3805
     26 H         141.1328  143.1372  167.7742 H       1  UNL1        0.2108
     27 C         144.8671  140.7697  164.0071 C.ar    1  UNL1        0.2247
     28 C         145.0183  139.3350  164.4176 C.ar    1  UNL1        0.0577
     29 C         144.1119  138.7543  165.4622 C.ar    1  UNL1        0.0061
     30 C         143.0543  139.6084  166.0962 C.ar    1  UNL1        0.0173
     31 C         142.9031  141.0432  165.6857 C.ar    1  UNL1        0.0868
     32 N         143.8095  141.6238  164.6411 N.ar    1  UNL1       -0.2137
     33 C         145.2146  142.2513  161.9012 C.3     1  UNL1        0.2542
     34 O         145.7736  141.3505  162.9625 O.3     1  UNL1       -0.4561
     35 C         142.7851  142.2282  167.4412 C.3     1  UNL1        0.0506
     36 C         142.2814  142.2725  168.8534 C.3     1  UNL1        0.0750
     37 N         141.6618  141.0521  169.4672 N.3     1  UNL1       -0.2702
     38 C         140.2032  141.0467  169.8169 C.3     1  UNL1        0.0897
     39 C         142.5009  139.8372  169.7315 C.3     1  UNL1        0.0897
@<TRIPOS>BOND
     1    33    34    1
     2    34    27    1
     3    27    28   ar
     4    28    29   ar
     5    29    30   ar
     6    30    31   ar
     7    31    24    1
     8    24    25    1
     9    24    35    1
    10    35    36    1
    11    36    37    1
    12    37    38    1
    13    37    39    1
    14    24     1    1
    15     1     2    1
    16     2     3   ar
    17     3     4   ar
    18     4     5   ar
    19     5     6   ar
    20     6     7    1
    21     6     8   ar
    22     8     9   ar
    23     9    10   ar
    24    10    11   ar
    25    11    12   ar
    26    12    13    1
    27    13    14    1
    28     1    15    1
    29    15    16   ar
    30    16    17   ar
    31    17    18   ar
    32    18    19   ar
    33    19    20   ar
    34    20    21    1
    35    21    22    1
    36    22    23    1
    37    31    32   ar
    38    32    27   ar
    39    12     2   ar
    40    20    15   ar
    41    10     4   ar
    42    23    19    1
    43    25    26    1
@<TRIPOS>MOLECULE
*****
 39 43 0 0 0
SMALL
GASTEIGER

@<TRIPOS>ATOM
      1 C         141.2163  140.2578  162.9321 C.3     1  UNL1        0.0822
      2 C         140.7853  140.2171  164.3683 C.ar    1  UNL1        0.0375
      3 C         140.9956  141.4132  165.2487 C.ar    1  UNL1        0.0023
      4 C         140.5646  141.3725  166.6849 C.ar    1  UNL1        0.0181
      5 C         140.7749  142.5686  167.5652 C.ar    1  UNL1        0.0082
      6 C         140.3439  142.5278  169.0014 C.ar    1  UNL1        0.0347
      7 BR        140.5542  143.7240  169.8818 Br      1  UNL1       -0.0490
      8 C         139.7027  141.2910  169.5572 C.ar    1  UNL1        0.0082
      9 C         139.4924  140.0948  168.6769 C.ar    1  UNL1        0.0197
     10 C         139.9233  140.1356  167.2407 C.ar    1  UNL1        0.0844
     11 N         139.7131  138.9394  166.3603 N.ar    1  UNL1       -0.2119
     12 C         140.1440  138.9802  164.9241 C.ar    1  UNL1        0.2211
     13 O         139.9338  137.7841  164.0437 O.3     1  UNL1       -0.4563
     14 C         138.6592  137.6399  163.2661 C.3     1  UNL1        0.2542
     15 C         140.2318  140.6318  161.8640 C.ar    1  UNL1        0.0215
     16 C         140.1295  139.8061  160.6160 C.ar    1  UNL1       -0.0007
     17 C         139.1451  140.1800  159.5477 C.ar    1  UNL1        0.0030
     18 C         138.2629  141.3798  159.7276 C.ar    1  UNL1        0.0402
     19 C         138.3652  142.2056  160.9758 C.ar    1  UNL1        0.1761
     20 C         139.3496  141.8316  162.0439 C.ar    1  UNL1        0.1728
     21 O         139.2256  142.8282  163.1580 O.3     1  UNL1       -0.4349
     22 C         138.1645  143.8181  162.7785 C.3     1  UNL1        0.4294
     23 O         137.6327  143.4333  161.4297 O.3     1  UNL1       -0.4346
     24 C         142.6317  139.9245  162.5641 C.3     1  UNL1        0.1321
     25 O         142.2743  138.4688  162.5079 O.3     1  UNL1       -0.3805
     26 H         143.0603  137.9518  162.2715 H       1  UNL1        0.2108
     27 C         142.8525  143.7711  161.6127 C.ar    1  UNL1        0.2247
     28 C         143.7038  144.2917  162.7326 C.ar    1  UNL1        0.0577
     29 C         144.1977  143.3566  163.7963 C.ar    1  UNL1        0.0061
     30 C         143.8404  141.9009  163.7401 C.ar    1  UNL1        0.0173
     31 C         142.9891  141.3803  162.6203 C.ar    1  UNL1        0.0868
     32 N         142.4952  142.3154  161.5565 N.ar    1  UNL1       -0.2137
     33 C         140.9268  145.1534  160.5493 C.3     1  UNL1        0.2542
     34 O         142.3586  144.7062  160.5489 O.3     1  UNL1       -0.4561
     35 C         144.0472  139.5913  162.1961 C.3     1  UNL1        0.0506
     36 C         144.3257  138.6628  161.0514 C.3     1  UNL1        0.0750
     37 N         143.6562  138.8827  159.7273 N.3     1  UNL1       -0.2702
     38 C         143.8306  140.1863  159.0060 C.3     1  UNL1        0.0897
     39 C         142.8123  137.7990  159.1244 C.3     1  UNL1        0.0897
@<TRIPOS>BOND
     1    33    34    1
     2    34    27    1
     3    27    28   ar
     4    28    29   ar
     5    29    30   ar
     6    30    31   ar
     7    31    24    1
     8    24    25    1
     9    24    35    1
    10    35    36    1
    11    36    37    1
    12    37    38    1
    13    37    39    1
    14    24     1    1
    15     1     2    1
    16     2     3   ar
    17     3     4   ar
    18     4     5   ar
    19     5     6   ar
    20     6     7    1
    21     6     8   ar
    22     8     9   ar
    23     9    10   ar
    24    10    11   ar
    25    11    12   ar
    26    12    13    1
    27    13    14    1
    28     1    15    1
    29    15    16   ar
    30    16    17   ar
    31    17    18   ar
    32    18    19   ar
    33    19    20   ar
    34    20    21    1
    35    21    22    1
    36    22    23    1
    37    31    32   ar
    38    32    27   ar
    39    12     2   ar
    40    20    15   ar
    41    10     4   ar
    42    23    19    1
    43    25    26    1
@<TRIPOS>MOLECULE
*****
 39 43 0 0 0
SMALL
GASTEIGER

@<TRIPOS>ATOM
      1 C         142.0078  140.8430  163.1239 C.3     1  UNL1        0.0822
      2 C         142.2958  141.2384  164.5420 C.ar    1  UNL1        0.0375
      3 C         141.4943  140.6464  165.6632 C.ar    1  UNL1        0.0023
      4 C         141.7823  141.0419  167.0812 C.ar    1  UNL1        0.0181
      5 C         140.9808  140.4499  168.2024 C.ar    1  UNL1        0.0082
      6 C         141.2688  140.8453  169.6204 C.ar    1  UNL1        0.0347
      7 BR        140.4673  140.2533  170.7417 Br      1  UNL1       -0.0490
      8 C         142.3582  141.8327  169.9171 C.ar    1  UNL1        0.0082
      9 C         143.1597  142.4247  168.7959 C.ar    1  UNL1        0.0197
     10 C         142.8717  142.0293  167.3780 C.ar    1  UNL1        0.0844
     11 N         143.6732  142.6213  166.2567 N.ar    1  UNL1       -0.2119
     12 C         143.3852  142.2259  164.8387 C.ar    1  UNL1        0.2211
     13 O         144.1867  142.8179  163.7174 O.3     1  UNL1       -0.4563
     14 C         143.9665  144.2446  163.3099 C.3     1  UNL1        0.2542
     15 C         141.1684  141.7305  162.2535 C.ar    1  UNL1        0.0215
     16 C         141.7826  142.4195  161.0712 C.ar    1  UNL1       -0.0007
     17 C         140.9432  143.3070  160.2007 C.ar    1  UNL1        0.0030
     18 C         139.4895  143.5056  160.5127 C.ar    1  UNL1        0.0402
     19 C         138.8752  142.8166  161.6951 C.ar    1  UNL1        0.1761
     20 C         139.7147  141.9291  162.5655 C.ar    1  UNL1        0.1728
     21 O         138.8386  141.3856  163.6550 O.3     1  UNL1       -0.4349
     22 C         137.4577  141.9372  163.4580 C.3     1  UNL1        0.4294
     23 O         137.4803  142.8217  162.2466 O.3     1  UNL1       -0.4346
     24 C         142.5593  139.5601  162.5763 C.3     1  UNL1        0.1321
     25 O         143.9287  140.1703  162.5258 O.3     1  UNL1       -0.3805
     26 H         144.5601  139.5196  162.1810 H       1  UNL1        0.2108
     27 C         139.2449  137.8967  163.9898 C.ar    1  UNL1        0.2247
     28 C         138.4513  137.7294  162.7280 C.ar    1  UNL1        0.0577
     29 C         139.0270  138.1723  161.4156 C.ar    1  UNL1        0.0061
     30 C         140.3964  138.7826  161.3651 C.ar    1  UNL1        0.0173
     31 C         141.1900  138.9498  162.6269 C.ar    1  UNL1        0.0868
     32 N         140.6142  138.5069  163.9392 N.ar    1  UNL1       -0.2137
     33 C         138.1126  138.4675  166.2574 C.3     1  UNL1        0.2542
     34 O         138.6692  137.4537  165.3022 O.3     1  UNL1       -0.4561
     35 C         143.1108  138.2771  162.0287 C.3     1  UNL1        0.0506
     36 C         144.0389  138.3020  160.8506 C.3     1  UNL1        0.0750
     37 N         143.5360  138.7464  159.5090 N.3     1  UNL1       -0.2702
     38 C         142.7265  137.8087  158.6633 C.3     1  UNL1        0.0897
     39 C         143.8428  140.1284  159.0133 C.3     1  UNL1        0.0897
@<TRIPOS>BOND
     1    33    34    1
     2    34    27    1
     3    27    28   ar
     4    28    29   ar
     5    29    30   ar
     6    30    31   ar
     7    31    24    1
     8    24    25    1
     9    24    35    1
    10    35    36    1
    11    36    37    1
    12    37    38    1
    13    37    39    1
    14    24     1    1
    15     1     2    1
    16     2     3   ar
    17     3     4   ar
    18     4     5   ar
    19     5     6   ar
    20     6     7    1
    21     6     8   ar
    22     8     9   ar
    23     9    10   ar
    24    10    11   ar
    25    11    12   ar
    26    12    13    1
    27    13    14    1
    28     1    15    1
    29    15    16   ar
    30    16    17   ar
    31    17    18   ar
    32    18    19   ar
    33    19    20   ar
    34    20    21    1
    35    21    22    1
    36    22    23    1
    37    31    32   ar
    38    32    27   ar
    39    12     2   ar
    40    20    15   ar
    41    10     4   ar
    42    23    19    1
    43    25    26    1
@<TRIPOS>MOLECULE
*****
 39 43 0 0 0
SMALL
GASTEIGER

@<TRIPOS>ATOM
      1 C         141.0284  141.6122  165.0101 C.3     1  UNL1        0.0822
      2 C         141.9740  141.8778  163.8764 C.ar    1  UNL1        0.0375
      3 C         141.6356  141.4098  162.4921 C.ar    1  UNL1        0.0023
      4 C         142.5812  141.6754  161.3583 C.ar    1  UNL1        0.0181
      5 C         142.2427  141.2073  159.9740 C.ar    1  UNL1        0.0082
      6 C         143.1883  141.4729  158.8404 C.ar    1  UNL1        0.0347
      7 BR        142.8499  141.0049  157.4560 Br      1  UNL1       -0.0490
      8 C         144.4724  142.2066  159.0910 C.ar    1  UNL1        0.0082
      9 C         144.8109  142.6746  160.4753 C.ar    1  UNL1        0.0197
     10 C         143.8653  142.4090  161.6090 C.ar    1  UNL1        0.0844
     11 N         144.2038  142.8771  162.9934 N.ar    1  UNL1       -0.2119
     12 C         143.2581  142.6115  164.1270 C.ar    1  UNL1        0.2211
     13 O         143.5966  143.0795  165.5114 O.3     1  UNL1       -0.4563
     14 C         144.7966  143.9512  165.7360 C.3     1  UNL1        0.2542
     15 C         141.5523  141.1030  166.3201 C.ar    1  UNL1        0.0215
     16 C         142.3868  139.8573  166.3608 C.ar    1  UNL1       -0.0007
     17 C         142.9108  139.3480  167.6709 C.ar    1  UNL1        0.0030
     18 C         142.6002  140.0846  168.9402 C.ar    1  UNL1        0.0402
     19 C         141.7656  141.3303  168.8994 C.ar    1  UNL1        0.1761
     20 C         141.2417  141.8395  167.5894 C.ar    1  UNL1        0.1728
     21 O         140.4510  143.0853  167.8592 O.3     1  UNL1       -0.4349
     22 C         140.4863  143.3461  169.3359 C.3     1  UNL1        0.4294
     23 O         141.2987  142.2614  169.9788 O.3     1  UNL1       -0.4346
     24 C         139.5589  141.8559  164.8337 C.3     1  UNL1        0.1321
     25 O         139.8118  143.3329  164.7669 O.3     1  UNL1       -0.3805
     26 H         138.9703  143.7998  164.6449 H       1  UNL1        0.2108
     27 C         139.6381  137.9929  163.9275 C.ar    1  UNL1        0.2247
     28 C         138.8001  137.4248  165.0343 C.ar    1  UNL1        0.0577
     29 C         138.2150  138.3338  166.0742 C.ar    1  UNL1        0.0061
     30 C         138.4679  139.8108  166.0074 C.ar    1  UNL1        0.0173
     31 C         139.3059  140.3789  164.9006 C.ar    1  UNL1        0.0868
     32 N         139.8910  139.4699  163.8607 N.ar    1  UNL1       -0.2137
     33 C         141.3334  137.5715  162.0043 C.3     1  UNL1        0.2542
     34 O         140.2233  137.0840  162.8876 O.3     1  UNL1       -0.4561
     35 C         138.0893  142.0995  164.6574 C.3     1  UNL1        0.0506
     36 C         137.5881  142.8087  163.4343 C.3     1  UNL1        0.0750
     37 N         138.1701  142.4873  162.0897 N.3     1  UNL1       -0.2702
     38 C         139.0006  143.5074  161.3688 C.3     1  UNL1        0.0897
     39 C         137.9216  141.1460  161.4660 C.3     1  UNL1        0.0897
@<TRIPOS>BOND
     1    33    34    1
     2    34    27    1
     3    27    28   ar
     4    28    29   ar
     5    29    30   ar
     6    30    31   ar
     7    31    24    1
     8    24    25    1
     9    24    35    1
    10    35    36    1
    11    36    37    1
    12    37    38    1
    13    37    39    1
    14    24     1    1
    15     1     2    1
    16     2     3   ar
    17     3     4   ar
    18     4     5   ar
    19     5     6   ar
    20     6     7    1
    21     6     8   ar
    22     8     9   ar
    23     9    10   ar
    24    10    11   ar
    25    11    12   ar
    26    12    13    1
    27    13    14    1
    28     1    15    1
    29    15    16   ar
    30    16    17   ar
    31    17    18   ar
    32    18    19   ar
    33    19    20   ar
    34    20    21    1
    35    21    22    1
    36    22    23    1
    37    31    32   ar
    38    32    27   ar
    39    12     2   ar
    40    20    15   ar
    41    10     4   ar
    42    23    19    1
    43    25    26    1
@<TRIPOS>MOLECULE
*****
 39 43 0 0 0
SMALL
GASTEIGER

@<TRIPOS>ATOM
      1 C         141.1966  140.6736  163.3266 C.3     1  UNL1        0.0822
      2 C         141.5330  140.5610  164.7841 C.ar    1  UNL1        0.0375
      3 C         140.7955  141.3935  165.7906 C.ar    1  UNL1        0.0023
      4 C         141.1319  141.2809  167.2481 C.ar    1  UNL1        0.0181
      5 C         140.3944  142.1134  168.2545 C.ar    1  UNL1        0.0082
      6 C         140.7308  142.0007  169.7119 C.ar    1  UNL1        0.0347
      7 BR        139.9933  142.8333  170.7184 Br      1  UNL1       -0.0490
      8 C         141.8047  141.0556  170.1629 C.ar    1  UNL1        0.0082
      9 C         142.5422  140.2231  169.1564 C.ar    1  UNL1        0.0197
     10 C         142.2058  140.3357  167.6990 C.ar    1  UNL1        0.0844
     11 N         142.9433  139.5032  166.6925 N.ar    1  UNL1       -0.2119
     12 C         142.6069  139.6158  165.2351 C.ar    1  UNL1        0.2211
     13 O         143.3444  138.7833  164.2286 O.3     1  UNL1       -0.4563
     14 C         144.7016  139.2094  163.7529 C.3     1  UNL1        0.2542
     15 C         142.1240  141.3980  162.3966 C.ar    1  UNL1        0.0215
     16 C         142.5336  140.7631  161.1009 C.ar    1  UNL1       -0.0007
     17 C         143.4611  141.4875  160.1708 C.ar    1  UNL1        0.0030
     18 C         143.9790  142.8469  160.5366 C.ar    1  UNL1        0.0402
     19 C         143.5694  143.4819  161.8324 C.ar    1  UNL1        0.1761
     20 C         142.6419  142.7574  162.7624 C.ar    1  UNL1        0.1728
     21 O         142.4148  143.6287  163.9621 O.3     1  UNL1       -0.4349
     22 C         143.2019  144.8916  163.7736 C.3     1  UNL1        0.4294
     23 O         143.9155  144.8008  162.4573 O.3     1  UNL1       -0.4346
     24 C         139.9327  140.0617  162.7992 C.3     1  UNL1        0.1321
     25 O         140.6493  138.7605  162.5913 O.3     1  UNL1       -0.3805
     26 H         140.0332  138.1070  162.2250 H       1  UNL1        0.2108
     27 C         138.7744  143.8254  162.3063 C.ar    1  UNL1        0.2247
     28 C         137.7826  143.9654  163.4228 C.ar    1  UNL1        0.0577
     29 C         137.5075  142.8041  164.3314 C.ar    1  UNL1        0.0061
     30 C         138.2241  141.5029  164.1236 C.ar    1  UNL1        0.0173
     31 C         139.2160  141.3629  163.0071 C.ar    1  UNL1        0.0868
     32 N         139.4911  142.5242  162.0984 N.ar    1  UNL1       -0.2137
     33 C         140.1306  145.9682  161.7413 C.3     1  UNL1        0.2542
     34 O         139.0496  144.9867  161.3976 O.3     1  UNL1       -0.4561
     35 C         138.6688  139.4498  162.2718 C.3     1  UNL1        0.0506
     36 C         138.7083  138.5858  161.0463 C.3     1  UNL1        0.0750
     37 N         139.1336  139.1684  159.7312 N.3     1  UNL1       -0.2702
     38 C         138.3888  140.3342  159.1514 C.3     1  UNL1        0.0897
     39 C         140.3037  138.5854  158.9958 C.3     1  UNL1        0.0897
@<TRIPOS>BOND
     1    33    34    1
     2    34    27    1
     3    27    28   ar
     4    28    29   ar
     5    29    30   ar
     6    30    31   ar
     7    31    24    1
     8    24    25    1
     9    24    35    1
    10    35    36    1
    11    36    37    1
    12    37    38    1
    13    37    39    1
    14    24     1    1
    15     1     2    1
    16     2     3   ar
    17     3     4   ar
    18     4     5   ar
    19     5     6   ar
    20     6     7    1
    21     6     8   ar
    22     8     9   ar
    23     9    10   ar
    24    10    11   ar
    25    11    12   ar
    26    12    13    1
    27    13    14    1
    28     1    15    1
    29    15    16   ar
    30    16    17   ar
    31    17    18   ar
    32    18    19   ar
    33    19    20   ar
    34    20    21    1
    35    21    22    1
    36    22    23    1
    37    31    32   ar
    38    32    27   ar
    39    12     2   ar
    40    20    15   ar
    41    10     4   ar
    42    23    19    1
    43    25    26    1
@<TRIPOS>MOLECULE
*****
 39 43 0 0 0
SMALL
GASTEIGER

@<TRIPOS>ATOM
      1 C         140.4289  140.7525  162.9791 C.3     1  UNL1        0.0822
      2 C         140.3069  140.6114  164.4675 C.ar    1  UNL1        0.0375
      3 C         140.4247  141.8203  165.3476 C.ar    1  UNL1        0.0023
      4 C         140.3028  141.6791  166.8361 C.ar    1  UNL1        0.0181
      5 C         140.4206  142.8880  167.7162 C.ar    1  UNL1        0.0082
      6 C         140.2986  142.7468  169.2045 C.ar    1  UNL1        0.0347
      7 BR        140.4164  143.9557  170.0848 Br      1  UNL1       -0.0490
      8 C         140.0589  141.3967  169.8127 C.ar    1  UNL1        0.0082
      9 C         139.9411  140.1879  168.9325 C.ar    1  UNL1        0.0197
     10 C         140.0630  140.3291  167.4442 C.ar    1  UNL1        0.0844
     11 N         139.9452  139.1201  166.5640 N.ar    1  UNL1       -0.2119
     12 C         140.0672  139.2613  165.0757 C.ar    1  UNL1        0.2211
     13 O         139.9494  138.0524  164.1954 O.3     1  UNL1       -0.4563
     14 C         141.0701  137.0574  164.1339 C.3     1  UNL1        0.2542
     15 C         141.7804  140.9169  162.3495 C.ar    1  UNL1        0.0215
     16 C         142.5675  142.1727  162.5802 C.ar    1  UNL1       -0.0007
     17 C         143.9191  142.3371  161.9507 C.ar    1  UNL1        0.0030
     18 C         144.4835  141.2456  161.0904 C.ar    1  UNL1        0.0402
     19 C         143.6963  139.9897  160.8598 C.ar    1  UNL1        0.1761
     20 C         142.3448  139.8254  161.4893 C.ar    1  UNL1        0.1728
     21 O         141.8049  138.4856  161.0848 O.3     1  UNL1       -0.4349
     22 C         142.8227  137.8220  160.2053 C.3     1  UNL1        0.4294
     23 O         143.9917  138.7516  160.0662 O.3     1  UNL1       -0.4346
     24 C         139.1993  140.7293  162.1203 C.3     1  UNL1        0.1321
     25 O         139.3736  139.2543  161.9106 O.3     1  UNL1       -0.3805
     26 H         138.6614  138.9222  161.3418 H       1  UNL1        0.2108
     27 C         139.6848  144.6516  161.7592 C.ar    1  UNL1        0.2247
     28 C         138.6765  145.1544  162.7493 C.ar    1  UNL1        0.0577
     29 C         137.8424  144.1822  163.5297 C.ar    1  UNL1        0.0061
     30 C         138.0166  142.7072  163.3201 C.ar    1  UNL1        0.0173
     31 C         139.0250  142.2043  162.3300 C.ar    1  UNL1        0.0868
     32 N         139.8591  143.1765  161.5496 N.ar    1  UNL1       -0.2137
     33 C         141.2103  145.1802  159.7237 C.3     1  UNL1        0.2542
     34 O         140.5190  145.6238  160.9788 O.3     1  UNL1       -0.4561
     35 C         137.9697  140.7061  161.2615 C.3     1  UNL1        0.0506
     36 C         137.7999  139.6368  160.2234 C.3     1  UNL1        0.0750
     37 N         138.3851  139.8207  158.8546 N.3     1  UNL1       -0.2702
     38 C         137.8507  140.8894  157.9479 C.3     1  UNL1        0.0897
     39 C         139.5047  138.9359  158.3924 C.3     1  UNL1        0.0897
@<TRIPOS>BOND
     1    33    34    1
     2    34    27    1
     3    27    28   ar
     4    28    29   ar
     5    29    30   ar
     6    30    31   ar
     7    31    24    1
     8    24    25    1
     9    24    35    1
    10    35    36    1
    11    36    37    1
    12    37    38    1
    13    37    39    1
    14    24     1    1
    15     1     2    1
    16     2     3   ar
    17     3     4   ar
    18     4     5   ar
    19     5     6   ar
    20     6     7    1
    21     6     8   ar
    22     8     9   ar
    23     9    10   ar
    24    10    11   ar
    25    11    12   ar
    26    12    13    1
    27    13    14    1
    28     1    15    1
    29    15    16   ar
    30    16    17   ar
    31    17    18   ar
    32    18    19   ar
    33    19    20   ar
    34    20    21    1
    35    21    22    1
    36    22    23    1
    37    31    32   ar
    38    32    27   ar
    39    12     2   ar
    40    20    15   ar
    41    10     4   ar
    42    23    19    1
    43    25    26    1
@<TRIPOS>MOLECULE
*****
 39 43 0 0 0
SMALL
GASTEIGER

@<TRIPOS>ATOM
      1 C         141.4177  141.8852  163.6303 C.3     1  UNL1        0.0822
      2 C         141.9240  141.3419  162.3270 C.ar    1  UNL1        0.0375
      3 C         141.0237  140.5134  161.4593 C.ar    1  UNL1        0.0023
      4 C         141.5301  139.9701  160.1560 C.ar    1  UNL1        0.0181
      5 C         140.6298  139.1416  159.2884 C.ar    1  UNL1        0.0082
      6 C         141.1362  138.5984  157.9851 C.ar    1  UNL1        0.0347
      7 BR        140.2359  137.7697  157.1174 Br      1  UNL1       -0.0490
      8 C         142.5429  138.8838  157.5496 C.ar    1  UNL1        0.0082
      9 C         143.4432  139.7123  158.4172 C.ar    1  UNL1        0.0197
     10 C         142.9368  140.2555  159.7204 C.ar    1  UNL1        0.0844
     11 N         143.8371  141.0841  160.5882 N.ar    1  UNL1       -0.2119
     12 C         143.3307  141.6273  161.8914 C.ar    1  UNL1        0.2211
     13 O         144.2311  142.4560  162.7591 O.3     1  UNL1       -0.4563
     14 C         145.5280  141.8870  163.2532 C.3     1  UNL1        0.2542
     15 C         140.1885  142.7445  163.6578 C.ar    1  UNL1        0.0215
     16 C         139.0838  142.4424  164.6264 C.ar    1  UNL1       -0.0007
     17 C         137.8546  143.3017  164.6540 C.ar    1  UNL1        0.0030
     18 C         137.7302  144.4631  163.7128 C.ar    1  UNL1        0.0402
     19 C         138.8350  144.7651  162.7441 C.ar    1  UNL1        0.1761
     20 C         140.0641  143.9058  162.7166 C.ar    1  UNL1        0.1728
     21 O         140.9822  144.4438  161.6594 O.3     1  UNL1       -0.4349
     22 C         140.3205  145.6356  161.0336 C.3     1  UNL1        0.4294
     23 O         138.9934  145.8342  161.7040 O.3     1  UNL1       -0.4346
     24 C         142.1405  141.5691  164.9061 C.3     1  UNL1        0.1321
     25 O         142.5700  143.0019  165.0177 O.3     1  UNL1       -0.3805
     26 H         143.1033  143.1180  165.8196 H       1  UNL1        0.2108
     27 C         139.8783  138.3111  165.0395 C.ar    1  UNL1        0.2247
     28 C         140.8518  137.2706  164.5711 C.ar    1  UNL1        0.0577
     29 C         142.2550  137.6629  164.2144 C.ar    1  UNL1        0.0061
     30 C         142.6845  139.0957  164.3260 C.ar    1  UNL1        0.0173
     31 C         141.7109  140.1362  164.7944 C.ar    1  UNL1        0.0868
     32 N         140.3078  139.7439  165.1512 N.ar    1  UNL1       -0.2137
     33 C         137.8581  138.4160  166.6699 C.3     1  UNL1        0.2542
     34 O         138.4751  137.9188  165.3963 O.3     1  UNL1       -0.4561
     35 C         142.8633  141.2530  166.1819 C.3     1  UNL1        0.0506
     36 C         143.0584  142.3203  167.2176 C.3     1  UNL1        0.0750
     37 N         142.1293  142.4044  168.3921 N.3     1  UNL1       -0.2702
     38 C         140.6574  142.1878  168.2011 C.3     1  UNL1        0.0897
     39 C         142.6720  142.7052  169.7577 C.3     1  UNL1        0.0897
@<TRIPOS>BOND
     1    33    34    1
     2    34    27    1
     3    27    28   ar
     4    28    29   ar
     5    29    30   ar
     6    30    31   ar
     7    31    24    1
     8    24    25    1
     9    24    35    1
    10    35    36    1
    11    36    37    1
    12    37    38    1
    13    37    39    1
    14    24     1    1
    15     1     2    1
    16     2     3   ar
    17     3     4   ar
    18     4     5   ar
    19     5     6   ar
    20     6     7    1
    21     6     8   ar
    22     8     9   ar
    23     9    10   ar
    24    10    11   ar
    25    11    12   ar
    26    12    13    1
    27    13    14    1
    28     1    15    1
    29    15    16   ar
    30    16    17   ar
    31    17    18   ar
    32    18    19   ar
    33    19    20   ar
    34    20    21    1
    35    21    22    1
    36    22    23    1
    37    31    32   ar
    38    32    27   ar
    39    12     2   ar
    40    20    15   ar
    41    10     4   ar
    42    23    19    1
    43    25    26    1
