@<TRIPOS>MOLECULE
*****
 30 33 0 0 0
SMALL
GASTEIGER

@<TRIPOS>ATOM
      1 C         140.6193  142.8878  167.9762 C.ar    1  UNL1        0.1036
      2 C         140.2316  143.5744  169.2522 C.ar    1  UNL1        0.1197
      3 N         140.7541  142.7564  170.3958 N.ar    1  UNL1       -0.2234
      4 C         141.4646  141.5643  169.8266 C.ar    1  UNL1        0.1640
      5 C         142.1767  140.4154  170.4768 C.ar    1  UNL1        0.0417
      6 C         142.8055  139.3477  169.6315 C.ar    1  UNL1        0.0390
      7 C         142.7222  139.4289  168.1360 C.ar    1  UNL1        0.1488
      8 N         142.0101  140.5778  167.4858 N.ar    1  UNL1       -0.1489
      9 N         141.3813  141.6455  168.3311 N.ar    1  UNL1       -0.2096
     10 C         139.6639  144.3060  163.8136 C.ar    1  UNL1        0.1807
     11 C         138.7751  144.6900  164.9593 C.ar    1  UNL1        0.0520
     12 C         139.0936  144.2173  166.3468 C.ar    1  UNL1        0.0060
     13 C         140.3008  143.3606  166.5887 C.ar    1  UNL1        0.0196
     14 C         141.1897  142.9765  165.4430 C.ar    1  UNL1        0.0060
     15 C         140.8712  143.4492  164.0555 C.ar    1  UNL1        0.0520
     16 C         139.8902  146.0876  161.9362 C.3     1  UNL1        0.3254
     17 S         139.3455  144.7787  162.4261 S.O     1  UNL1        0.0581
     18 O         138.4823  143.9424  161.5286 O.co2   1  UNL1       -0.6774
     19 N         143.3510  138.3611  167.2907 N.pl3   1  UNL1       -0.3183
     20 H         143.7813  137.5852  167.7174 H       1  UNL1        0.1482
     21 C         143.3242  138.4755  165.7954 C.3     1  UNL1        0.0733
     22 C         144.4655  139.1273  165.0724 C.3     1  UNL1        0.0387
     23 C         144.4387  139.2416  163.5770 C.3     1  UNL1        0.0971
     24 N         143.2706  138.7043  162.8046 N.3     1  UNL1       -0.1593
     25 C         142.1293  138.0525  163.5275 C.3     1  UNL1        0.0971
     26 C         142.1561  137.9381  165.0228 C.3     1  UNL1        0.0387
     27 S         143.2438  138.8186  161.3092 S.O2    1  UNL1        0.0457
     28 C         143.2169  138.9330  159.8137 C.3     1  UNL1        0.1960
     29 O         142.1990  137.7443  161.2457 O.2     1  UNL1       -0.1572
     30 O         144.2886  139.8930  161.3727 O.2     1  UNL1       -0.1572
@<TRIPOS>UNITY_ATOM_ATTR
17 1
charge 1
18 1
charge -1
@<TRIPOS>BOND
     1    16    17    1
     2    17    18    2
     3    17    10    1
     4    10    11   ar
     5    11    12   ar
     6    12    13   ar
     7    13     1    1
     8     1     2   ar
     9     2     3   ar
    10     3     4   ar
    11     4     5   ar
    12     5     6   ar
    13     6     7   ar
    14     7    19    1
    15    19    21    1
    16    21    22    1
    17    22    23    1
    18    23    24    1
    19    24    27    1
    20    27    28    1
    21    27    29    2
    22    27    30    2
    23    24    25    1
    24    25    26    1
    25     7     8   ar
    26     8     9   ar
    27    13    14   ar
    28    14    15   ar
    29    15    10   ar
    30     9     1   ar
    31     9     4   ar
    32    26    21    1
    33    19    20    1
@<TRIPOS>MOLECULE
*****
 30 33 0 0 0
SMALL
GASTEIGER

@<TRIPOS>ATOM
      1 C         142.6584  141.9046  168.1539 C.ar    1  UNL1        0.1036
      2 C         143.2969  142.4409  169.4008 C.ar    1  UNL1        0.1197
      3 N         142.4275  142.0668  170.5644 N.ar    1  UNL1       -0.2234
      4 C         141.2517  141.2993  170.0368 C.ar    1  UNL1        0.1640
      5 C         140.0696  140.6787  170.7204 C.ar    1  UNL1        0.0417
      6 C         139.0301  139.9579  169.9142 C.ar    1  UNL1        0.0390
      7 C         139.1729  139.8577  168.4244 C.ar    1  UNL1        0.1488
      8 N         140.3550  140.4782  167.7408 N.ar    1  UNL1       -0.1489
      9 N         141.3944  141.1990  168.5470 N.ar    1  UNL1       -0.2096
     10 C         144.2547  142.3366  163.9687 C.ar    1  UNL1        0.1807
     11 C         143.4993  141.1010  164.3595 C.ar    1  UNL1        0.0520
     12 C         142.9672  140.9571  165.7546 C.ar    1  UNL1        0.0060
     13 C         143.1905  142.0486  166.7588 C.ar    1  UNL1        0.0196
     14 C         143.9459  143.2842  166.3680 C.ar    1  UNL1        0.0060
     15 C         144.4780  143.4282  164.9730 C.ar    1  UNL1        0.0520
     16 C         144.0266  143.2836  161.5602 C.3     1  UNL1        0.3254
     17 S         144.7867  142.4806  162.5737 S.O     1  UNL1        0.0581
     18 O         146.0790  141.8214  162.1922 O.co2   1  UNL1       -0.6774
     19 N         138.1334  139.1368  167.6182 N.pl3   1  UNL1       -0.3183
     20 H         137.3277  138.7816  168.0587 H       1  UNL1        0.1482
     21 C         138.3214  138.9571  166.1410 C.3     1  UNL1        0.0733
     22 C         138.7451  137.6257  165.5953 C.3     1  UNL1        0.0387
     23 C         138.9331  137.4461  164.1179 C.3     1  UNL1        0.0971
     24 N         138.6974  138.5979  163.1864 N.3     1  UNL1       -0.1593
     25 C         138.2737  139.9293  163.7321 C.3     1  UNL1        0.0971
     26 C         138.0857  140.1089  165.2093 C.3     1  UNL1        0.0387
     27 S         138.8854  138.4182  161.7091 S.O2    1  UNL1        0.0457
     28 C         139.0733  138.2386  160.2318 C.3     1  UNL1        0.1960
     29 O         137.6525  139.2333  161.4531 O.2     1  UNL1       -0.1572
     30 O         140.1182  137.6031  161.9651 O.2     1  UNL1       -0.1572
@<TRIPOS>UNITY_ATOM_ATTR
17 1
charge 1
18 1
charge -1
@<TRIPOS>BOND
     1    16    17    1
     2    17    18    2
     3    17    10    1
     4    10    11   ar
     5    11    12   ar
     6    12    13   ar
     7    13     1    1
     8     1     2   ar
     9     2     3   ar
    10     3     4   ar
    11     4     5   ar
    12     5     6   ar
    13     6     7   ar
    14     7    19    1
    15    19    21    1
    16    21    22    1
    17    22    23    1
    18    23    24    1
    19    24    27    1
    20    27    28    1
    21    27    29    2
    22    27    30    2
    23    24    25    1
    24    25    26    1
    25     7     8   ar
    26     8     9   ar
    27    13    14   ar
    28    14    15   ar
    29    15    10   ar
    30     9     1   ar
    31     9     4   ar
    32    26    21    1
    33    19    20    1
@<TRIPOS>MOLECULE
*****
 30 33 0 0 0
SMALL
GASTEIGER

@<TRIPOS>ATOM
      1 C         143.0487  139.0603  165.4032 C.ar    1  UNL1        0.1036
      2 C         143.6964  138.1121  166.3683 C.ar    1  UNL1        0.1197
      3 N         143.3677  138.5694  167.7585 N.ar    1  UNL1       -0.2234
      4 C         142.5169  139.8003  167.6527 C.ar    1  UNL1        0.1640
      5 C         141.8963  140.6840  168.6937 C.ar    1  UNL1        0.0417
      6 C         141.0785  141.8711  168.2790 C.ar    1  UNL1        0.0390
      7 C         140.8813  142.1745  166.8233 C.ar    1  UNL1        0.1488
      8 N         141.5020  141.2907  165.7823 N.ar    1  UNL1       -0.1489
      9 N         142.3198  140.1037  166.1970 N.ar    1  UNL1       -0.2096
     10 C         143.2561  138.8176  160.9145 C.ar    1  UNL1        0.1807
     11 C         142.2205  138.0302  161.6611 C.ar    1  UNL1        0.0520
     12 C         142.1514  138.1111  163.1574 C.ar    1  UNL1        0.0060
     13 C         143.1178  138.9794  163.9070 C.ar    1  UNL1        0.0196
     14 C         144.1535  139.7669  163.1603 C.ar    1  UNL1        0.0060
     15 C         144.2226  139.6859  161.6641 C.ar    1  UNL1        0.0520
     16 C         142.5886  137.6511  158.6910 C.3     1  UNL1        0.3254
     17 S         143.3252  138.7367  159.4183 S.O     1  UNL1        0.0581
     18 O         144.1310  139.7414  158.6493 O.co2   1  UNL1       -0.6774
     19 N         140.0635  143.3616  166.4087 N.pl3   1  UNL1       -0.3183
     20 H         139.4962  143.8231  167.0679 H       1  UNL1        0.1482
     21 C         140.1099  143.8457  164.9897 C.3     1  UNL1        0.0733
     22 C         141.4200  144.2386  164.3738 C.3     1  UNL1        0.0387
     23 C         141.4664  144.7227  162.9548 C.3     1  UNL1        0.0971
     24 N         140.2028  144.8138  162.1517 N.3     1  UNL1       -0.1593
     25 C         138.8927  144.4209  162.7677 C.3     1  UNL1        0.0971
     26 C         138.8463  143.9368  164.1866 C.3     1  UNL1        0.0387
     27 S         140.2492  145.2979  160.7328 S.O2    1  UNL1        0.0457
     28 C         140.2956  145.7820  159.3138 C.3     1  UNL1        0.1960
     29 O         139.2383  146.3563  161.0608 O.2     1  UNL1       -0.1572
     30 O         141.2602  144.2394  160.4048 O.2     1  UNL1       -0.1572
@<TRIPOS>UNITY_ATOM_ATTR
17 1
charge 1
18 1
charge -1
@<TRIPOS>BOND
     1    16    17    1
     2    17    18    2
     3    17    10    1
     4    10    11   ar
     5    11    12   ar
     6    12    13   ar
     7    13     1    1
     8     1     2   ar
     9     2     3   ar
    10     3     4   ar
    11     4     5   ar
    12     5     6   ar
    13     6     7   ar
    14     7    19    1
    15    19    21    1
    16    21    22    1
    17    22    23    1
    18    23    24    1
    19    24    27    1
    20    27    28    1
    21    27    29    2
    22    27    30    2
    23    24    25    1
    24    25    26    1
    25     7     8   ar
    26     8     9   ar
    27    13    14   ar
    28    14    15   ar
    29    15    10   ar
    30     9     1   ar
    31     9     4   ar
    32    26    21    1
    33    19    20    1
@<TRIPOS>MOLECULE
*****
 30 33 0 0 0
SMALL
GASTEIGER

@<TRIPOS>ATOM
      1 C         140.7085  142.7927  166.3962 C.ar    1  UNL1        0.1036
      2 C         140.1396  143.1891  167.7263 C.ar    1  UNL1        0.1197
      3 N         140.5713  142.1689  168.7376 N.ar    1  UNL1       -0.2234
      4 C         141.4071  141.1421  168.0326 C.ar    1  UNL1        0.1640
      5 C         142.1019  139.9058  168.5214 C.ar    1  UNL1        0.0417
      6 C         142.8815  139.0551  167.5631 C.ar    1  UNL1        0.0390
      7 C         142.9662  139.4406  166.1160 C.ar    1  UNL1        0.1488
      8 N         142.2715  140.6768  165.6272 N.ar    1  UNL1       -0.1489
      9 N         141.4919  141.5276  166.5855 N.ar    1  UNL1       -0.2096
     10 C         140.1612  145.0095  162.5185 C.ar    1  UNL1        0.1807
     11 C         141.5263  144.8919  163.1290 C.ar    1  UNL1        0.0520
     12 C         141.7087  144.1530  164.4216 C.ar    1  UNL1        0.0060
     13 C         140.5261  143.5316  165.1036 C.ar    1  UNL1        0.0196
     14 C         139.1610  143.6492  164.4931 C.ar    1  UNL1        0.0060
     15 C         138.9786  144.3882  163.2005 C.ar    1  UNL1        0.0520
     16 C         140.5218  145.1746  159.9508 C.3     1  UNL1        0.3254
     17 S         139.9789  145.7485  161.2259 S.O     1  UNL1        0.0581
     18 O         139.2535  147.0613  161.2086 O.co2   1  UNL1       -0.6774
     19 N         143.7459  138.5898  165.1576 N.pl3   1  UNL1       -0.3183
     20 H         144.2765  137.8311  165.4923 H       1  UNL1        0.1482
     21 C         143.7170  138.8950  163.6893 C.3     1  UNL1        0.0733
     22 C         142.8847  138.0564  162.7652 C.3     1  UNL1        0.0387
     23 C         142.8558  138.3616  161.2968 C.3     1  UNL1        0.0971
     24 N         143.6593  139.5054  160.7526 N.3     1  UNL1       -0.1593
     25 C         144.4917  140.3439  161.6767 C.3     1  UNL1        0.0971
     26 C         144.5205  140.0388  163.1450 C.3     1  UNL1        0.0387
     27 S         143.6305  139.8105  159.2843 S.O2    1  UNL1        0.0457
     28 C         143.6016  140.1157  157.8159 C.3     1  UNL1        0.1960
     29 O         143.3427  138.3681  158.9901 O.2     1  UNL1       -0.1572
     30 O         143.9183  141.2530  159.5784 O.2     1  UNL1       -0.1572
@<TRIPOS>UNITY_ATOM_ATTR
17 1
charge 1
18 1
charge -1
@<TRIPOS>BOND
     1    16    17    1
     2    17    18    2
     3    17    10    1
     4    10    11   ar
     5    11    12   ar
     6    12    13   ar
     7    13     1    1
     8     1     2   ar
     9     2     3   ar
    10     3     4   ar
    11     4     5   ar
    12     5     6   ar
    13     6     7   ar
    14     7    19    1
    15    19    21    1
    16    21    22    1
    17    22    23    1
    18    23    24    1
    19    24    27    1
    20    27    28    1
    21    27    29    2
    22    27    30    2
    23    24    25    1
    24    25    26    1
    25     7     8   ar
    26     8     9   ar
    27    13    14   ar
    28    14    15   ar
    29    15    10   ar
    30     9     1   ar
    31     9     4   ar
    32    26    21    1
    33    19    20    1
@<TRIPOS>MOLECULE
*****
 30 33 0 0 0
SMALL
GASTEIGER

@<TRIPOS>ATOM
      1 C         139.5119  139.0184  165.6224 C.ar    1  UNL1        0.1036
      2 C         139.4247  137.5362  165.4088 C.ar    1  UNL1        0.1197
      3 N         138.8033  137.2975  164.0646 N.ar    1  UNL1       -0.2234
      4 C         138.5064  138.6320  163.4475 C.ar    1  UNL1        0.1640
      5 C         137.8939  139.0161  162.1332 C.ar    1  UNL1        0.0417
      6 C         137.7193  140.4639  161.7818 C.ar    1  UNL1        0.0390
      7 C         138.1572  141.5275  162.7446 C.ar    1  UNL1        0.1488
      8 N         138.7698  141.1434  164.0588 N.ar    1  UNL1       -0.1489
      9 N         138.9443  139.6956  164.4102 N.ar    1  UNL1       -0.2096
     10 C         141.1828  141.0727  169.2608 C.ar    1  UNL1        0.1807
     11 C         139.7704  140.5676  169.2670 C.ar    1  UNL1        0.0520
     12 C         139.2135  139.8829  168.0541 C.ar    1  UNL1        0.0060
     13 C         140.0688  139.7031  166.8352 C.ar    1  UNL1        0.0196
     14 C         141.4813  140.2082  166.8290 C.ar    1  UNL1        0.0060
     15 C         142.0383  140.8929  168.0419 C.ar    1  UNL1        0.0520
     16 C         142.7213  142.8807  170.3163 C.3     1  UNL1        0.3254
     17 S         141.7398  141.7574  170.4737 S.O     1  UNL1        0.0581
     18 O         141.3152  141.3188  171.8438 O.co2   1  UNL1       -0.6774
     19 N         137.9826  142.9753  162.3931 N.pl3   1  UNL1       -0.3183
     20 H         137.3112  143.5189  162.8652 H       1  UNL1        0.1482
     21 C         138.8310  143.5947  161.3223 C.3     1  UNL1        0.0733
     22 C         138.8505  143.0022  159.9444 C.3     1  UNL1        0.0387
     23 C         139.6989  143.6217  158.8736 C.3     1  UNL1        0.0971
     24 N         140.5277  144.8336  159.1807 N.3     1  UNL1       -0.1593
     25 C         140.5082  145.4260  160.5586 C.3     1  UNL1        0.0971
     26 C         139.6599  144.8066  161.6294 C.3     1  UNL1        0.0387
     27 S         141.3761  145.4530  158.1099 S.O2    1  UNL1        0.0457
     28 C         142.2244  146.0724  157.0391 C.3     1  UNL1        0.1960
     29 O         140.1687  146.1501  157.5567 O.2     1  UNL1       -0.1572
     30 O         142.5834  144.7558  158.6632 O.2     1  UNL1       -0.1572
@<TRIPOS>UNITY_ATOM_ATTR
17 1
charge 1
18 1
charge -1
@<TRIPOS>BOND
     1    16    17    1
     2    17    18    2
     3    17    10    1
     4    10    11   ar
     5    11    12   ar
     6    12    13   ar
     7    13     1    1
     8     1     2   ar
     9     2     3   ar
    10     3     4   ar
    11     4     5   ar
    12     5     6   ar
    13     6     7   ar
    14     7    19    1
    15    19    21    1
    16    21    22    1
    17    22    23    1
    18    23    24    1
    19    24    27    1
    20    27    28    1
    21    27    29    2
    22    27    30    2
    23    24    25    1
    24    25    26    1
    25     7     8   ar
    26     8     9   ar
    27    13    14   ar
    28    14    15   ar
    29    15    10   ar
    30     9     1   ar
    31     9     4   ar
    32    26    21    1
    33    19    20    1
@<TRIPOS>MOLECULE
*****
 30 33 0 0 0
SMALL
GASTEIGER

@<TRIPOS>ATOM
      1 C         141.4020  138.4817  165.0242 C.ar    1  UNL1        0.1036
      2 C         140.8994  137.1001  164.7266 C.ar    1  UNL1        0.1197
      3 N         141.1506  136.8182  163.2749 N.ar    1  UNL1       -0.2234
      4 C         141.8085  138.0255  162.6753 C.ar    1  UNL1        0.1640
      5 C         142.2862  138.3216  161.2846 C.ar    1  UNL1        0.0417
      6 C         142.9193  139.6457  160.9750 C.ar    1  UNL1        0.0390
      7 C         143.0747  140.6738  162.0562 C.ar    1  UNL1        0.1488
      8 N         142.5970  140.3778  163.4469 N.ar    1  UNL1       -0.1489
      9 N         141.9639  139.0536  163.7565 N.ar    1  UNL1       -0.2096
     10 C         141.2511  140.5479  169.0190 C.ar    1  UNL1        0.1807
     11 C         140.0143  140.4551  168.1754 C.ar    1  UNL1        0.0520
     12 C         140.0646  139.7664  166.8438 C.ar    1  UNL1        0.0060
     13 C         141.3517  139.1704  166.3558 C.ar    1  UNL1        0.0196
     14 C         142.5886  139.2632  167.1995 C.ar    1  UNL1        0.0060
     15 C         142.5382  139.9520  168.5311 C.ar    1  UNL1        0.0520
     16 C         142.0543  142.4440  170.6033 C.3     1  UNL1        0.3254
     17 S         141.2007  141.2367  170.3506 S.O     1  UNL1        0.0581
     18 O         140.2968  140.7181  171.4294 O.co2   1  UNL1       -0.6774
     19 N         143.7078  141.9979  161.7465 N.pl3   1  UNL1       -0.3183
     20 H         144.5314  142.2706  162.2119 H       1  UNL1        0.1482
     21 C         143.0861  142.9066  160.7278 C.3     1  UNL1        0.0733
     22 C         143.5797  142.8945  159.3114 C.3     1  UNL1        0.0387
     23 C         142.9580  143.8033  158.2927 C.3     1  UNL1        0.0971
     24 N         141.8426  144.7240  158.6904 N.3     1  UNL1       -0.1593
     25 C         141.3489  144.7360  160.1068 C.3     1  UNL1        0.0971
     26 C         141.9707  143.8274  161.1255 C.3     1  UNL1        0.0387
     27 S         141.2209  145.6326  157.6717 S.O2    1  UNL1        0.0457
     28 C         140.5991  146.5413  156.6530 C.3     1  UNL1        0.1960
     29 O         139.9061  144.9330  157.8501 O.2     1  UNL1       -0.1572
     30 O         142.5357  146.3322  157.4934 O.2     1  UNL1       -0.1572
@<TRIPOS>UNITY_ATOM_ATTR
17 1
charge 1
18 1
charge -1
@<TRIPOS>BOND
     1    16    17    1
     2    17    18    2
     3    17    10    1
     4    10    11   ar
     5    11    12   ar
     6    12    13   ar
     7    13     1    1
     8     1     2   ar
     9     2     3   ar
    10     3     4   ar
    11     4     5   ar
    12     5     6   ar
    13     6     7   ar
    14     7    19    1
    15    19    21    1
    16    21    22    1
    17    22    23    1
    18    23    24    1
    19    24    27    1
    20    27    28    1
    21    27    29    2
    22    27    30    2
    23    24    25    1
    24    25    26    1
    25     7     8   ar
    26     8     9   ar
    27    13    14   ar
    28    14    15   ar
    29    15    10   ar
    30     9     1   ar
    31     9     4   ar
    32    26    21    1
    33    19    20    1
@<TRIPOS>MOLECULE
*****
 30 33 0 0 0
SMALL
GASTEIGER

@<TRIPOS>ATOM
      1 C         139.4542  142.8257  164.8294 C.ar    1  UNL1        0.1036
      2 C         139.2570  144.3055  164.6830 C.ar    1  UNL1        0.1197
      3 N         138.9492  144.5918  163.2431 N.ar    1  UNL1       -0.2234
      4 C         138.9562  143.2891  162.4996 C.ar    1  UNL1        0.1640
      5 C         138.7187  142.9557  161.0566 C.ar    1  UNL1        0.0417
      6 C         138.7933  141.5308  160.5939 C.ar    1  UNL1        0.0390
      7 C         139.1054  140.4393  161.5743 C.ar    1  UNL1        0.1488
      8 N         139.3429  140.7727  163.0173 N.ar    1  UNL1       -0.1489
      9 N         139.2683  142.1975  163.4800 N.ar    1  UNL1       -0.2096
     10 C         140.4320  140.6525  168.6466 C.ar    1  UNL1        0.1807
     11 C         139.6932  139.9455  167.5492 C.ar    1  UNL1        0.0520
     12 C         139.3673  140.6700  166.2768 C.ar    1  UNL1        0.0060
     13 C         139.7801  142.1013  166.1018 C.ar    1  UNL1        0.0196
     14 C         140.5190  142.8083  167.1992 C.ar    1  UNL1        0.0060
     15 C         140.8449  142.0839  168.4716 C.ar    1  UNL1        0.0520
     16 C         142.1451  139.4064  170.1509 C.3     1  UNL1        0.3254
     17 S         140.7579  139.9281  169.9190 S.O     1  UNL1        0.0581
     18 O         139.6967  139.7253  170.9595 O.co2   1  UNL1       -0.6774
     19 N         139.1800  139.0144  161.1116 N.pl3   1  UNL1       -0.3183
     20 H         138.6102  138.3300  161.5314 H       1  UNL1        0.1482
     21 C         140.1226  138.6321  160.0092 C.3     1  UNL1        0.0733
     22 C         139.6130  138.4757  158.6071 C.3     1  UNL1        0.0387
     23 C         140.5558  138.0935  157.5047 C.3     1  UNL1        0.0971
     24 N         142.0081  137.8677  157.8045 N.3     1  UNL1       -0.1593
     25 C         142.5177  138.0242  159.2065 C.3     1  UNL1        0.0971
     26 C         141.5750  138.4064  160.3089 C.3     1  UNL1        0.0387
     27 S         142.9507  137.4855  156.7021 S.O2    1  UNL1        0.0457
     28 C         143.8935  137.1033  155.5997 C.3     1  UNL1        0.1960
     29 O         143.7852  138.6968  156.9957 O.2     1  UNL1       -0.1572
     30 O         142.1163  136.2742  156.4085 O.2     1  UNL1       -0.1572
@<TRIPOS>UNITY_ATOM_ATTR
17 1
charge 1
18 1
charge -1
@<TRIPOS>BOND
     1    16    17    1
     2    17    18    2
     3    17    10    1
     4    10    11   ar
     5    11    12   ar
     6    12    13   ar
     7    13     1    1
     8     1     2   ar
     9     2     3   ar
    10     3     4   ar
    11     4     5   ar
    12     5     6   ar
    13     6     7   ar
    14     7    19    1
    15    19    21    1
    16    21    22    1
    17    22    23    1
    18    23    24    1
    19    24    27    1
    20    27    28    1
    21    27    29    2
    22    27    30    2
    23    24    25    1
    24    25    26    1
    25     7     8   ar
    26     8     9   ar
    27    13    14   ar
    28    14    15   ar
    29    15    10   ar
    30     9     1   ar
    31     9     4   ar
    32    26    21    1
    33    19    20    1
@<TRIPOS>MOLECULE
*****
 30 33 0 0 0
SMALL
GASTEIGER

@<TRIPOS>ATOM
      1 C         139.1615  142.7947  164.1477 C.ar    1  UNL1        0.1036
      2 C         137.9728  143.6716  163.8868 C.ar    1  UNL1        0.1197
      3 N         138.0395  144.1303  162.4602 N.ar    1  UNL1       -0.2234
      4 C         139.2693  143.5368  161.8394 C.ar    1  UNL1        0.1640
      5 C         139.8474  143.6414  160.4593 C.ar    1  UNL1        0.0417
      6 C         141.1188  142.9206  160.1221 C.ar    1  UNL1        0.0390
      7 C         141.8123  142.0952  161.1651 C.ar    1  UNL1        0.1488
      8 N         141.2342  141.9906  162.5453 N.ar    1  UNL1       -0.1489
      9 N         139.9628  142.7114  162.8824 N.ar    1  UNL1       -0.2096
     10 C         140.1501  140.7694  168.0427 C.ar    1  UNL1        0.1807
     11 C         140.5714  142.1897  167.8078 C.ar    1  UNL1        0.0520
     12 C         140.2418  142.8648  166.5095 C.ar    1  UNL1        0.0060
     13 C         139.4910  142.1197  165.4461 C.ar    1  UNL1        0.0196
     14 C         139.0697  140.6993  165.6810 C.ar    1  UNL1        0.0060
     15 C         139.3993  140.0242  166.9793 C.ar    1  UNL1        0.0520
     16 C         141.8962  139.7070  169.6466 C.3     1  UNL1        0.3254
     17 S         140.4796  140.0943  169.3411 S.O     1  UNL1        0.0581
     18 O         139.3926  139.8066  170.3338 O.co2   1  UNL1       -0.6774
     19 N         143.0838  141.3743  160.8278 N.pl3   1  UNL1       -0.3183
     20 H         143.9055  141.5611  161.3370 H       1  UNL1        0.1482
     21 C         143.1034  140.3689  159.7149 C.3     1  UNL1        0.0733
     22 C         143.6300  140.7551  158.3645 C.3     1  UNL1        0.0387
     23 C         143.6497  139.7496  157.2515 C.3     1  UNL1        0.0971
     24 N         143.1427  138.3581  157.4889 N.3     1  UNL1       -0.1593
     25 C         142.6161  137.9719  158.8393 C.3     1  UNL1        0.0971
     26 C         142.5964  138.9773  159.9523 C.3     1  UNL1        0.0387
     27 S         143.1623  137.3527  156.3760 S.O2    1  UNL1        0.0457
     28 C         143.1820  136.3472  155.2629 C.3     1  UNL1        0.1960
     29 O         144.4278  137.9612  155.8485 O.2     1  UNL1       -0.1572
     30 O         141.8968  136.7441  156.9034 O.2     1  UNL1       -0.1572
@<TRIPOS>UNITY_ATOM_ATTR
17 1
charge 1
18 1
charge -1
@<TRIPOS>BOND
     1    16    17    1
     2    17    18    2
     3    17    10    1
     4    10    11   ar
     5    11    12   ar
     6    12    13   ar
     7    13     1    1
     8     1     2   ar
     9     2     3   ar
    10     3     4   ar
    11     4     5   ar
    12     5     6   ar
    13     6     7   ar
    14     7    19    1
    15    19    21    1
    16    21    22    1
    17    22    23    1
    18    23    24    1
    19    24    27    1
    20    27    28    1
    21    27    29    2
    22    27    30    2
    23    24    25    1
    24    25    26    1
    25     7     8   ar
    26     8     9   ar
    27    13    14   ar
    28    14    15   ar
    29    15    10   ar
    30     9     1   ar
    31     9     4   ar
    32    26    21    1
    33    19    20    1
@<TRIPOS>MOLECULE
*****
 30 33 0 0 0
SMALL
GASTEIGER

@<TRIPOS>ATOM
      1 C         138.9792  146.2390  155.6110 C.ar    1  UNL1        0.1036
      2 C         138.2276  145.2494  154.7709 C.ar    1  UNL1        0.1197
      3 N         138.3365  143.9058  155.4289 N.ar    1  UNL1       -0.2234
      4 C         139.1552  144.0650  156.6756 C.ar    1  UNL1        0.1640
      5 C         139.5904  143.0833  157.7228 C.ar    1  UNL1        0.0417
      6 C         140.4227  143.5436  158.8826 C.ar    1  UNL1        0.0390
      7 C         140.8200  144.9857  158.9952 C.ar    1  UNL1        0.1488
      8 N         140.3848  145.9674  157.9479 N.ar    1  UNL1       -0.1489
      9 N         139.5524  145.5071  156.7881 N.ar    1  UNL1       -0.2096
     10 C         139.4341  150.6326  154.7509 C.ar    1  UNL1        0.1807
     11 C         140.0937  149.6218  153.8604 C.ar    1  UNL1        0.0520
     12 C         139.9421  148.1573  154.1471 C.ar    1  UNL1        0.0060
     13 C         139.1308  147.7035  155.3243 C.ar    1  UNL1        0.0196
     14 C         138.4712  148.7144  156.2149 C.ar    1  UNL1        0.0060
     15 C         138.6228  150.1789  155.9282 C.ar    1  UNL1        0.0520
     16 C         138.3698  152.9658  154.3340 C.3     1  UNL1        0.3254
     17 S         139.5858  152.0972  154.4642 S.O     1  UNL1        0.0581
     18 O         140.9534  152.6930  154.3078 O.co2   1  UNL1       -0.6774
     19 N         141.6524  145.4460  160.1551 N.pl3   1  UNL1       -0.3183
     20 H         142.3496  146.1280  160.0207 H       1  UNL1        0.1482
     21 C         141.4226  144.8671  161.5196 C.3     1  UNL1        0.0733
     22 C         140.2962  145.3753  162.3699 C.3     1  UNL1        0.0387
     23 C         140.0665  144.7964  163.7346 C.3     1  UNL1        0.0971
     24 N         140.9631  143.7094  164.2488 N.3     1  UNL1       -0.1593
     25 C         142.0895  143.2013  163.3985 C.3     1  UNL1        0.0971
     26 C         142.3193  143.7801  162.0340 C.3     1  UNL1        0.0387
     27 S         140.7333  143.1306  165.6134 S.O2    1  UNL1        0.0457
     28 C         140.5034  142.5517  166.9781 C.3     1  UNL1        0.1960
     29 O         139.3199  143.6321  165.5881 O.2     1  UNL1       -0.1572
     30 O         142.1467  142.6290  165.6387 O.2     1  UNL1       -0.1572
@<TRIPOS>UNITY_ATOM_ATTR
17 1
charge 1
18 1
charge -1
@<TRIPOS>BOND
     1    16    17    1
     2    17    18    2
     3    17    10    1
     4    10    11   ar
     5    11    12   ar
     6    12    13   ar
     7    13     1    1
     8     1     2   ar
     9     2     3   ar
    10     3     4   ar
    11     4     5   ar
    12     5     6   ar
    13     6     7   ar
    14     7    19    1
    15    19    21    1
    16    21    22    1
    17    22    23    1
    18    23    24    1
    19    24    27    1
    20    27    28    1
    21    27    29    2
    22    27    30    2
    23    24    25    1
    24    25    26    1
    25     7     8   ar
    26     8     9   ar
    27    13    14   ar
    28    14    15   ar
    29    15    10   ar
    30     9     1   ar
    31     9     4   ar
    32    26    21    1
    33    19    20    1
