@<TRIPOS>MOLECULE
*****
 35 38 0 0 0
SMALL
GASTEIGER

@<TRIPOS>ATOM
      1 C         140.5246  144.6643  157.7834 C.ar    1  UNL1        0.1193
      2 C         141.6971  145.2636  158.5017 C.ar    1  UNL1        0.1437
      3 N         142.5642  146.2734  157.8100 N.pl3   1  UNL1       -0.3415
      4 N         142.0025  144.8531  159.9118 N.ar    1  UNL1       -0.2093
      5 C         141.1355  143.8434  160.6035 C.ar    1  UNL1        0.1841
      6 N         139.9629  143.2440  159.8851 N.ar    1  UNL1       -0.2093
      7 C         139.6575  143.6545  158.4751 C.ar    1  UNL1        0.1437
      8 N         138.4850  143.0552  157.7568 N.pl3   1  UNL1       -0.3415
      9 H         142.3637  146.5429  156.8846 H       1  UNL1        0.1438
     10 H         143.3337  146.6668  158.2815 H       1  UNL1        0.1438
     11 H         137.9159  142.3924  158.2108 H       1  UNL1        0.1438
     12 H         138.2845  143.3246  156.8313 H       1  UNL1        0.1438
     13 C         141.4409  143.4329  162.0135 C.ar    1  UNL1        0.1343
     14 N         140.4897  143.4834  163.1722 N.ar    1  UNL1       -0.2272
     15 C         141.2121  142.9815  164.3872 C.ar    1  UNL1        0.1288
     16 N         142.6098  142.6208  163.9794 N.ar    1  UNL1       -0.2919
     17 C         143.7721  142.0745  164.7544 C.ar    1  UNL1        0.0811
     18 C         145.0757  141.8070  164.0624 C.ar    1  UNL1        0.0191
     19 C         145.2171  142.0860  162.5953 C.ar    1  UNL1        0.0031
     20 C         144.0549  142.6324  161.8204 C.ar    1  UNL1        0.0192
     21 C         142.7513  142.8998  162.5124 C.ar    1  UNL1        0.0857
     22 C         140.6377  142.8614  165.7676 C.3     1  UNL1        0.0928
     23 C         139.8843  141.6255  166.1616 C.ar    1  UNL1        0.0128
     24 C         138.9652  140.9623  165.1790 C.ar    1  UNL1       -0.0016
     25 C         138.2118  139.7265  165.5729 C.ar    1  UNL1       -0.0002
     26 C         138.3775  139.1539  166.9493 C.ar    1  UNL1        0.0023
     27 C         139.2966  139.8171  167.9319 C.ar    1  UNL1        0.0293
     28 C         140.0500  141.0529  167.5380 C.ar    1  UNL1        0.1366
     29 F         140.9691  141.7161  168.5206 F       1  UNL1       -0.2045
     30 C         139.5555  146.3925  156.1029 C.2     1  UNL1        0.4090
     31 O         139.1973  147.2997  157.2425 O.2     1  UNL1       -0.2258
     32 N         140.2192  145.0748  156.3733 N.am    1  UNL1       -0.2181
     33 C         140.5774  144.1676  155.2338 C.3     1  UNL1        0.1237
     34 C         139.8688  148.0447  154.1224 C.3     1  UNL1        0.2574
     35 O         139.2500  146.8031  154.6929 O.3     1  UNL1       -0.4302
@<TRIPOS>BOND
     1    34    35    1
     2    35    30    1
     3    30    31    2
     4    30    32   am
     5    32    33    1
     6    32     1    1
     7     1     2   ar
     8     2     3    1
     9     2     4   ar
    10     4     5   ar
    11     5    13    1
    12    13    14   ar
    13    14    15   ar
    14    15    22    1
    15    22    23    1
    16    23    24   ar
    17    24    25   ar
    18    25    26   ar
    19    26    27   ar
    20    27    28   ar
    21    28    29    1
    22    15    16   ar
    23    16    17   ar
    24    17    18   ar
    25    18    19   ar
    26    19    20   ar
    27    20    21   ar
    28     5     6   ar
    29     6     7   ar
    30     7     8    1
    31     7     1   ar
    32    21    13   ar
    33    28    23   ar
    34    21    16   ar
    35     3     9    1
    36     3    10    1
    37     8    11    1
    38     8    12    1
@<TRIPOS>MOLECULE
*****
 35 38 0 0 0
SMALL
GASTEIGER

@<TRIPOS>ATOM
      1 C         143.5267  141.9756  158.8000 C.ar    1  UNL1        0.1193
      2 C         143.0010  143.3224  159.1997 C.ar    1  UNL1        0.1437
      3 N         143.0002  144.4507  158.2114 N.pl3   1  UNL1       -0.3415
      4 N         142.4760  143.5408  160.5878 N.ar    1  UNL1       -0.2093
      5 C         142.4768  142.4126  161.5762 C.ar    1  UNL1        0.1841
      6 N         143.0026  141.0657  161.1764 N.ar    1  UNL1       -0.2093
      7 C         143.5275  140.8473  159.7884 C.ar    1  UNL1        0.1437
      8 N         144.0532  139.5005  159.3887 N.pl3   1  UNL1       -0.3415
      9 H         143.3447  144.3073  157.3004 H       1  UNL1        0.1438
     10 H         142.6551  145.3346  158.4737 H       1  UNL1        0.1438
     11 H         144.0537  138.7599  160.0375 H       1  UNL1        0.1438
     12 H         144.3977  139.3571  158.4777 H       1  UNL1        0.1438
     13 C         141.9519  142.6310  162.9643 C.ar    1  UNL1        0.1343
     14 N         142.6543  142.2700  164.2395 N.ar    1  UNL1       -0.2272
     15 C         141.7689  142.6647  165.3841 C.ar    1  UNL1        0.1288
     16 N         140.5192  143.2697  164.8163 N.ar    1  UNL1       -0.2919
     17 C         139.2930  143.8368  165.4679 C.ar    1  UNL1        0.0811
     18 C         138.1798  144.3830  164.6239 C.ar    1  UNL1        0.0191
     19 C         138.2929  144.3622  163.1283 C.ar    1  UNL1        0.0031
     20 C         139.5191  143.7951  162.4767 C.ar    1  UNL1        0.0192
     21 C         140.6323  143.2488  163.3207 C.ar    1  UNL1        0.0857
     22 C         142.0787  142.4859  166.8408 C.3     1  UNL1        0.0928
     23 C         141.0901  141.8041  167.7397 C.ar    1  UNL1        0.0128
     24 C         140.3749  140.5721  167.2702 C.ar    1  UNL1       -0.0016
     25 C         139.3863  139.8903  168.1689 C.ar    1  UNL1       -0.0002
     26 C         139.1129  140.4406  169.5373 C.ar    1  UNL1        0.0023
     27 C         139.8282  141.6726  170.0069 C.ar    1  UNL1        0.0293
     28 C         140.8167  142.3544  169.1081 C.ar    1  UNL1        0.1366
     29 F         141.5320  143.5865  169.5776 F       1  UNL1       -0.2045
     30 C         145.4521  142.1686  157.0664 C.2     1  UNL1        0.4090
     31 O         146.3276  142.7984  158.1089 O.2     1  UNL1       -0.2258
     32 N         144.0516  141.7572  157.4119 N.am    1  UNL1       -0.2181
     33 C         143.1761  141.1273  156.3695 C.3     1  UNL1        0.1237
     34 C         147.4225  141.6088  155.4682 C.3     1  UNL1        0.2574
     35 O         145.9771  141.9502  155.6783 O.3     1  UNL1       -0.4302
@<TRIPOS>BOND
     1    34    35    1
     2    35    30    1
     3    30    31    2
     4    30    32   am
     5    32    33    1
     6    32     1    1
     7     1     2   ar
     8     2     3    1
     9     2     4   ar
    10     4     5   ar
    11     5    13    1
    12    13    14   ar
    13    14    15   ar
    14    15    22    1
    15    22    23    1
    16    23    24   ar
    17    24    25   ar
    18    25    26   ar
    19    26    27   ar
    20    27    28   ar
    21    28    29    1
    22    15    16   ar
    23    16    17   ar
    24    17    18   ar
    25    18    19   ar
    26    19    20   ar
    27    20    21   ar
    28     5     6   ar
    29     6     7   ar
    30     7     8    1
    31     7     1   ar
    32    21    13   ar
    33    28    23   ar
    34    21    16   ar
    35     3     9    1
    36     3    10    1
    37     8    11    1
    38     8    12    1
@<TRIPOS>MOLECULE
*****
 35 38 0 0 0
SMALL
GASTEIGER

@<TRIPOS>ATOM
      1 C         140.6211  144.7462  157.6193 C.ar    1  UNL1        0.1193
      2 C         141.7363  145.4059  158.3751 C.ar    1  UNL1        0.1437
      3 N         142.6490  146.3693  157.6759 N.pl3   1  UNL1       -0.3415
      4 N         141.9387  145.1022  159.8300 N.ar    1  UNL1       -0.2093
      5 C         141.0261  144.1389  160.5292 C.ar    1  UNL1        0.1841
      6 N         139.9108  143.4792  159.7734 N.ar    1  UNL1       -0.2093
      7 C         139.7084  143.7829  158.3185 C.ar    1  UNL1        0.1437
      8 N         138.5932  143.1231  157.5628 N.pl3   1  UNL1       -0.3415
      9 H         142.5162  146.5686  156.7210 H       1  UNL1        0.1438
     10 H         143.3810  146.8022  158.1719 H       1  UNL1        0.1438
     11 H         137.9942  142.4909  158.0217 H       1  UNL1        0.1438
     12 H         138.4603  143.3224  156.6079 H       1  UNL1        0.1438
     13 C         141.2285  143.8352  161.9841 C.ar    1  UNL1        0.1343
     14 N         142.5099  143.3850  162.6209 N.ar    1  UNL1       -0.2272
     15 C         142.2584  143.2000  164.0880 C.ar    1  UNL1        0.1288
     16 N         140.8216  143.5358  164.3580 N.ar    1  UNL1       -0.2919
     17 C         140.0106  143.5348  165.6199 C.ar    1  UNL1        0.0811
     18 C         138.5632  143.9265  165.5814 C.ar    1  UNL1        0.0191
     19 C         137.9267  144.3190  164.2811 C.ar    1  UNL1        0.0031
     20 C         138.7377  144.3200  163.0193 C.ar    1  UNL1        0.0192
     21 C         140.1851  143.9284  163.0577 C.ar    1  UNL1        0.0857
     22 C         143.2666  142.7570  165.1064 C.3     1  UNL1        0.0928
     23 C         143.3172  141.3206  165.5362 C.ar    1  UNL1        0.0128
     24 C         142.6228  140.8893  166.7939 C.ar    1  UNL1       -0.0016
     25 C         142.6733  139.4531  167.2237 C.ar    1  UNL1       -0.0002
     26 C         143.4182  138.4483  166.3958 C.ar    1  UNL1        0.0023
     27 C         144.1126  138.8797  165.1382 C.ar    1  UNL1        0.0293
     28 C         144.0621  140.3158  164.7083 C.ar    1  UNL1        0.1366
     29 F         144.7565  140.7472  163.4507 F       1  UNL1       -0.2045
     30 C         139.7187  146.3107  155.7518 C.2     1  UNL1        0.4090
     31 O         139.2212  147.2679  156.7941 O.2     1  UNL1       -0.2258
     32 N         140.4187  145.0499  156.1644 N.am    1  UNL1       -0.2181
     33 C         140.9163  144.0928  155.1221 C.3     1  UNL1        0.1237
     34 C         140.3577  147.6583  153.6244 C.3     1  UNL1        0.2574
     35 O         139.5162  146.6145  154.2969 O.3     1  UNL1       -0.4302
@<TRIPOS>BOND
     1    34    35    1
     2    35    30    1
     3    30    31    2
     4    30    32   am
     5    32    33    1
     6    32     1    1
     7     1     2   ar
     8     2     3    1
     9     2     4   ar
    10     4     5   ar
    11     5    13    1
    12    13    14   ar
    13    14    15   ar
    14    15    22    1
    15    22    23    1
    16    23    24   ar
    17    24    25   ar
    18    25    26   ar
    19    26    27   ar
    20    27    28   ar
    21    28    29    1
    22    15    16   ar
    23    16    17   ar
    24    17    18   ar
    25    18    19   ar
    26    19    20   ar
    27    20    21   ar
    28     5     6   ar
    29     6     7   ar
    30     7     8    1
    31     7     1   ar
    32    21    13   ar
    33    28    23   ar
    34    21    16   ar
    35     3     9    1
    36     3    10    1
    37     8    11    1
    38     8    12    1
@<TRIPOS>MOLECULE
*****
 35 38 0 0 0
SMALL
GASTEIGER

@<TRIPOS>ATOM
      1 C         140.6307  144.7170  157.6143 C.ar    1  UNL1        0.1193
      2 C         139.7173  143.7549  158.3143 C.ar    1  UNL1        0.1437
      3 N         138.6124  143.0821  157.5550 N.pl3   1  UNL1       -0.3415
      4 N         139.9088  143.4656  159.7737 N.ar    1  UNL1       -0.2093
      5 C         141.0136  144.1383  160.5330 C.ar    1  UNL1        0.1841
      6 N         141.9271  145.1005  159.8329 N.ar    1  UNL1       -0.2093
      7 C         141.7356  145.3898  158.3736 C.ar    1  UNL1        0.1437
      8 N         142.6491  146.3518  157.6737 N.pl3   1  UNL1       -0.3415
      9 H         138.4867  143.2720  156.5972 H       1  UNL1        0.1438
     10 H         138.0129  142.4507  158.0145 H       1  UNL1        0.1438
     11 H         143.3742  146.7934  158.1721 H       1  UNL1        0.1438
     12 H         142.5234  146.5417  156.7159 H       1  UNL1        0.1438
     13 C         141.2051  143.8490  161.9923 C.ar    1  UNL1        0.1343
     14 N         142.4828  143.4095  162.6438 N.ar    1  UNL1       -0.2272
     15 C         142.2198  143.2373  164.1105 C.ar    1  UNL1        0.1288
     16 N         140.7796  143.5704  164.3655 N.ar    1  UNL1       -0.2919
     17 C         139.9583  143.5782  165.6206 C.ar    1  UNL1        0.0811
     18 C         138.5098  143.9641  165.5665 C.ar    1  UNL1        0.0191
     19 C         137.8827  144.3422  164.2574 C.ar    1  UNL1        0.0031
     20 C         138.7040  144.3343  163.0023 C.ar    1  UNL1        0.0192
     21 C         140.1525  143.9484  163.0564 C.ar    1  UNL1        0.0857
     22 C         143.2212  142.8075  165.1413 C.3     1  UNL1        0.0928
     23 C         143.2596  141.3799  165.6001 C.ar    1  UNL1        0.0128
     24 C         143.9140  140.3349  164.7459 C.ar    1  UNL1       -0.0016
     25 C         143.9525  138.9073  165.2046 C.ar    1  UNL1       -0.0002
     26 C         143.3364  138.5247  166.5177 C.ar    1  UNL1        0.0023
     27 C         142.6820  139.5697  167.3719 C.ar    1  UNL1        0.0293
     28 C         142.6436  140.9973  166.9132 C.ar    1  UNL1        0.1366
     29 F         141.9891  142.0422  167.7674 F       1  UNL1       -0.2045
     30 C         139.7416  146.2625  155.7247 C.2     1  UNL1        0.4090
     31 O         139.2355  147.2295  156.7537 O.2     1  UNL1       -0.2258
     32 N         140.4392  145.0063  156.1550 N.am    1  UNL1       -0.2181
     33 C         140.9453  144.0393  155.1260 C.3     1  UNL1        0.1237
     34 C         140.5605  147.3775  153.5255 C.3     1  UNL1        0.2574
     35 O         139.5501  146.5519  154.2654 O.3     1  UNL1       -0.4302
@<TRIPOS>BOND
     1    34    35    1
     2    35    30    1
     3    30    31    2
     4    30    32   am
     5    32    33    1
     6    32     1    1
     7     1     2   ar
     8     2     3    1
     9     2     4   ar
    10     4     5   ar
    11     5    13    1
    12    13    14   ar
    13    14    15   ar
    14    15    22    1
    15    22    23    1
    16    23    24   ar
    17    24    25   ar
    18    25    26   ar
    19    26    27   ar
    20    27    28   ar
    21    28    29    1
    22    15    16   ar
    23    16    17   ar
    24    17    18   ar
    25    18    19   ar
    26    19    20   ar
    27    20    21   ar
    28     5     6   ar
    29     6     7   ar
    30     7     8    1
    31     7     1   ar
    32    21    13   ar
    33    28    23   ar
    34    21    16   ar
    35     3     9    1
    36     3    10    1
    37     8    11    1
    38     8    12    1
@<TRIPOS>MOLECULE
*****
 35 38 0 0 0
SMALL
GASTEIGER

@<TRIPOS>ATOM
      1 C         142.4836  139.3456  159.7873 C.ar    1  UNL1        0.1193
      2 C         143.2774  139.0390  161.0225 C.ar    1  UNL1        0.1437
      3 N         144.6075  138.3550  160.9086 N.pl3   1  UNL1       -0.3415
      4 N         142.7412  139.4163  162.3716 N.ar    1  UNL1       -0.2093
      5 C         141.4112  140.1003  162.4855 C.ar    1  UNL1        0.1841
      6 N         140.6173  140.4070  161.2502 N.ar    1  UNL1       -0.2093
      7 C         141.1535  140.0296  159.9011 C.ar    1  UNL1        0.1437
      8 N         140.3596  140.3362  158.6660 N.pl3   1  UNL1       -0.3415
      9 H         144.9595  138.1073  160.0231 H       1  UNL1        0.1438
     10 H         145.1286  138.1537  161.7193 H       1  UNL1        0.1438
     11 H         139.4866  140.7852  158.7408 H       1  UNL1        0.1438
     12 H         140.7115  140.0886  157.7805 H       1  UNL1        0.1438
     13 C         140.8750  140.4777  163.8346 C.ar    1  UNL1        0.1343
     14 N         141.1628  141.7512  164.5731 N.ar    1  UNL1       -0.2272
     15 C         140.4224  141.7084  165.8769 C.ar    1  UNL1        0.1288
     16 N         139.6771  140.4084  165.9443 N.ar    1  UNL1       -0.2919
     17 C         138.7799  139.8190  166.9919 C.ar    1  UNL1        0.0811
     18 C         138.1624  138.4690  166.7773 C.ar    1  UNL1        0.0191
     19 C         138.4421  137.7084  165.5151 C.ar    1  UNL1        0.0031
     20 C         139.3393  138.2978  164.4675 C.ar    1  UNL1        0.0192
     21 C         139.9568  139.6478  164.6821 C.ar    1  UNL1        0.0857
     22 C         140.4267  142.7778  166.9288 C.3     1  UNL1        0.0928
     23 C         141.0548  142.5129  168.2651 C.ar    1  UNL1        0.0128
     24 C         140.1938  142.3884  169.4870 C.ar    1  UNL1       -0.0016
     25 C         140.8218  142.1236  170.8232 C.ar    1  UNL1       -0.0002
     26 C         142.3108  141.9833  170.9374 C.ar    1  UNL1        0.0023
     27 C         143.1718  142.1079  169.7155 C.ar    1  UNL1        0.0293
     28 C         142.5438  142.3727  168.3793 C.ar    1  UNL1        0.1366
     29 F         143.4048  142.4973  167.1574 F       1  UNL1       -0.2045
     30 C         143.8933  139.9261  157.6836 C.2     1  UNL1        0.4090
     31 O         144.2306  141.2613  158.2781 O.2     1  UNL1       -0.2258
     32 N         143.0198  138.9682  158.4382 N.am    1  UNL1       -0.2181
     33 C         142.6825  137.6330  157.8437 C.3     1  UNL1        0.1237
     34 C         145.5715  140.3180  155.7393 C.3     1  UNL1        0.2574
     35 O         144.4296  139.5488  156.3345 O.3     1  UNL1       -0.4302
@<TRIPOS>BOND
     1    34    35    1
     2    35    30    1
     3    30    31    2
     4    30    32   am
     5    32    33    1
     6    32     1    1
     7     1     2   ar
     8     2     3    1
     9     2     4   ar
    10     4     5   ar
    11     5    13    1
    12    13    14   ar
    13    14    15   ar
    14    15    22    1
    15    22    23    1
    16    23    24   ar
    17    24    25   ar
    18    25    26   ar
    19    26    27   ar
    20    27    28   ar
    21    28    29    1
    22    15    16   ar
    23    16    17   ar
    24    17    18   ar
    25    18    19   ar
    26    19    20   ar
    27    20    21   ar
    28     5     6   ar
    29     6     7   ar
    30     7     8    1
    31     7     1   ar
    32    21    13   ar
    33    28    23   ar
    34    21    16   ar
    35     3     9    1
    36     3    10    1
    37     8    11    1
    38     8    12    1
@<TRIPOS>MOLECULE
*****
 35 38 0 0 0
SMALL
GASTEIGER

@<TRIPOS>ATOM
      1 C         140.5668  144.8679  157.4848 C.ar    1  UNL1        0.1193
      2 C         141.6804  145.4729  158.2872 C.ar    1  UNL1        0.1437
      3 N         142.6215  146.4496  157.6466 N.pl3   1  UNL1       -0.3415
      4 N         141.8529  145.1012  159.7301 N.ar    1  UNL1       -0.2093
      5 C         140.9119  144.1246  160.3708 C.ar    1  UNL1        0.1841
      6 N         139.7982  143.5195  159.5684 N.ar    1  UNL1       -0.2093
      7 C         139.6257  143.8912  158.1254 C.ar    1  UNL1        0.1437
      8 N         138.5120  143.2862  157.3231 N.pl3   1  UNL1       -0.3415
      9 H         142.5083  146.6935  156.6995 H       1  UNL1        0.1438
     10 H         143.3524  146.8467  158.1732 H       1  UNL1        0.1438
     11 H         137.8944  142.6452  157.7436 H       1  UNL1        0.1438
     12 H         138.3988  143.5301  156.3761 H       1  UNL1        0.1438
     13 C         141.0844  143.7529  161.8137 C.ar    1  UNL1        0.1343
     14 N         140.0056  143.7398  162.8558 N.ar    1  UNL1       -0.2272
     15 C         140.6205  143.3079  164.1540 C.ar    1  UNL1        0.1288
     16 N         142.0793  143.0540  163.9142 N.ar    1  UNL1       -0.2919
     17 C         143.1836  142.6079  164.8261 C.ar    1  UNL1        0.0811
     18 C         144.5746  142.4369  164.2915 C.ar    1  UNL1        0.0191
     19 C         144.8613  142.7120  162.8451 C.ar    1  UNL1        0.0031
     20 C         143.7570  143.1580  161.9332 C.ar    1  UNL1        0.0192
     21 C         142.3660  143.3290  162.4678 C.ar    1  UNL1        0.0857
     22 C         139.9026  143.1564  165.4624 C.3     1  UNL1        0.0928
     23 C         139.4939  141.7945  165.9403 C.ar    1  UNL1        0.0128
     24 C         140.0764  141.2376  167.2055 C.ar    1  UNL1       -0.0016
     25 C         139.6677  139.8758  167.6834 C.ar    1  UNL1       -0.0002
     26 C         138.6766  139.0709  166.8962 C.ar    1  UNL1        0.0023
     27 C         138.0942  139.6277  165.6310 C.ar    1  UNL1        0.0293
     28 C         138.5028  140.9895  165.1531 C.ar    1  UNL1        0.1366
     29 F         137.9204  141.5464  163.8879 F       1  UNL1       -0.2045
     30 C         139.6864  146.5099  155.6741 C.2     1  UNL1        0.4090
     31 O         139.1511  147.4085  156.7493 O.2     1  UNL1       -0.2258
     32 N         140.3943  145.2396  156.0419 N.am    1  UNL1       -0.2181
     33 C         140.9296  144.3410  154.9667 C.3     1  UNL1        0.1237
     34 C         140.3618  147.9623  153.6285 C.3     1  UNL1        0.2574
     35 O         139.5139  146.8817  154.2312 O.3     1  UNL1       -0.4302
@<TRIPOS>BOND
     1    34    35    1
     2    35    30    1
     3    30    31    2
     4    30    32   am
     5    32    33    1
     6    32     1    1
     7     1     2   ar
     8     2     3    1
     9     2     4   ar
    10     4     5   ar
    11     5    13    1
    12    13    14   ar
    13    14    15   ar
    14    15    22    1
    15    22    23    1
    16    23    24   ar
    17    24    25   ar
    18    25    26   ar
    19    26    27   ar
    20    27    28   ar
    21    28    29    1
    22    15    16   ar
    23    16    17   ar
    24    17    18   ar
    25    18    19   ar
    26    19    20   ar
    27    20    21   ar
    28     5     6   ar
    29     6     7   ar
    30     7     8    1
    31     7     1   ar
    32    21    13   ar
    33    28    23   ar
    34    21    16   ar
    35     3     9    1
    36     3    10    1
    37     8    11    1
    38     8    12    1
@<TRIPOS>MOLECULE
*****
 35 38 0 0 0
SMALL
GASTEIGER

@<TRIPOS>ATOM
      1 C         140.6362  145.1363  156.5479 C.ar    1  UNL1        0.1193
      2 C         139.4777  144.1944  156.6919 C.ar    1  UNL1        0.1437
      3 N         138.6646  143.8163  155.4895 N.pl3   1  UNL1       -0.3415
      4 N         139.1324  143.6307  158.0384 N.ar    1  UNL1       -0.2093
      5 C         139.9454  144.0087  159.2408 C.ar    1  UNL1        0.1841
      6 N         141.1040  144.9506  159.0967 N.ar    1  UNL1       -0.2093
      7 C         141.4494  145.5144  157.7503 C.ar    1  UNL1        0.1437
      8 N         142.6079  146.4562  157.6063 N.pl3   1  UNL1       -0.3415
      9 H         138.8913  144.1863  154.6058 H       1  UNL1        0.1438
     10 H         137.9042  143.1981  155.5840 H       1  UNL1        0.1438
     11 H         143.1415  146.7043  158.3956 H       1  UNL1        0.1438
     12 H         142.8346  146.8262  156.7226 H       1  UNL1        0.1438
     13 C         139.6000  143.4450  160.5872 C.ar    1  UNL1        0.1343
     14 N         138.4588  142.5196  160.8893 N.ar    1  UNL1       -0.2272
     15 C         138.4888  142.2104  162.3567 C.ar    1  UNL1        0.1288
     16 N         139.6485  142.9447  162.9616 N.ar    1  UNL1       -0.2919
     17 C         140.1678  143.0171  164.3670 C.ar    1  UNL1        0.0811
     18 C         141.3740  143.8525  164.6787 C.ar    1  UNL1        0.0191
     19 C         142.0608  144.6156  163.5850 C.ar    1  UNL1        0.0031
     20 C         141.5414  144.5432  162.1797 C.ar    1  UNL1        0.0192
     21 C         140.3353  143.7077  161.8680 C.ar    1  UNL1        0.0857
     22 C         137.5278  141.3227  163.0905 C.3     1  UNL1        0.0928
     23 C         138.0205  140.0718  163.7559 C.ar    1  UNL1        0.0128
     24 C         138.1018  140.0002  165.2519 C.ar    1  UNL1       -0.0016
     25 C         138.5945  138.7494  165.9173 C.ar    1  UNL1       -0.0002
     26 C         139.0060  137.5702  165.0865 C.ar    1  UNL1        0.0023
     27 C         138.9247  137.6418  163.5904 C.ar    1  UNL1        0.0293
     28 C         138.4320  138.8926  162.9251 C.ar    1  UNL1        0.1366
     29 F         138.3507  138.9643  161.4290 F       1  UNL1       -0.2045
     30 C         140.3032  146.9456  154.7135 C.2     1  UNL1        0.4090
     31 O         139.2795  147.6276  155.5720 O.2     1  UNL1       -0.2258
     32 N         140.9816  145.7000  155.2014 N.am    1  UNL1       -0.2181
     33 C         142.0053  145.0181  154.3429 C.3     1  UNL1        0.1237
     34 C         140.2470  148.9113  153.0154 C.3     1  UNL1        0.2574
     35 O         140.6485  147.5095  153.3670 O.3     1  UNL1       -0.4302
@<TRIPOS>BOND
     1    34    35    1
     2    35    30    1
     3    30    31    2
     4    30    32   am
     5    32    33    1
     6    32     1    1
     7     1     2   ar
     8     2     3    1
     9     2     4   ar
    10     4     5   ar
    11     5    13    1
    12    13    14   ar
    13    14    15   ar
    14    15    22    1
    15    22    23    1
    16    23    24   ar
    17    24    25   ar
    18    25    26   ar
    19    26    27   ar
    20    27    28   ar
    21    28    29    1
    22    15    16   ar
    23    16    17   ar
    24    17    18   ar
    25    18    19   ar
    26    19    20   ar
    27    20    21   ar
    28     5     6   ar
    29     6     7   ar
    30     7     8    1
    31     7     1   ar
    32    21    13   ar
    33    28    23   ar
    34    21    16   ar
    35     3     9    1
    36     3    10    1
    37     8    11    1
    38     8    12    1
@<TRIPOS>MOLECULE
*****
 35 38 0 0 0
SMALL
GASTEIGER

@<TRIPOS>ATOM
      1 C         140.4955  144.6937  157.4566 C.ar    1  UNL1        0.1193
      2 C         139.6624  143.5632  157.9836 C.ar    1  UNL1        0.1437
      3 N         138.4287  143.1336  157.2465 N.pl3   1  UNL1       -0.3415
      4 N         140.0630  142.8623  159.2479 N.ar    1  UNL1       -0.2093
      5 C         141.2966  143.2919  159.9851 C.ar    1  UNL1        0.1841
      6 N         142.1297  144.4225  159.4580 N.ar    1  UNL1       -0.2093
      7 C         141.7292  145.1234  158.1938 C.ar    1  UNL1        0.1437
      8 N         142.5623  146.2539  157.6668 N.pl3   1  UNL1       -0.3415
      9 H         138.1658  143.5936  156.4167 H       1  UNL1        0.1438
     10 H         137.8819  142.3916  157.5924 H       1  UNL1        0.1438
     11 H         143.3720  146.5358  158.1506 H       1  UNL1        0.1438
     12 H         142.2995  146.7139  156.8370 H       1  UNL1        0.1438
     13 C         141.6971  142.5910  161.2493 C.ar    1  UNL1        0.1343
     14 N         141.3924  141.1651  161.6015 N.ar    1  UNL1       -0.2272
     15 C         141.9797  140.8859  162.9532 C.ar    1  UNL1        0.1288
     16 N         142.6474  142.1391  163.4364 N.ar    1  UNL1       -0.2919
     17 C         143.3919  142.4569  164.6992 C.ar    1  UNL1        0.0811
     18 C         143.9617  143.8284  164.9090 C.ar    1  UNL1        0.0191
     19 C         143.7870  144.8823  163.8560 C.ar    1  UNL1        0.0031
     20 C         143.0426  144.5645  162.5931 C.ar    1  UNL1        0.0192
     21 C         142.4728  143.1930  162.3834 C.ar    1  UNL1        0.0857
     22 C         141.9113  139.5822  163.6919 C.3     1  UNL1        0.0928
     23 C         140.7231  139.2692  164.5524 C.ar    1  UNL1        0.0128
     24 C         140.3263  140.2075  165.6533 C.ar    1  UNL1       -0.0016
     25 C         139.1382  139.8946  166.5138 C.ar    1  UNL1       -0.0002
     26 C         138.3469  138.6432  166.2732 C.ar    1  UNL1        0.0023
     27 C         138.7437  137.7048  165.1723 C.ar    1  UNL1        0.0293
     28 C         139.9318  138.0178  164.3119 C.ar    1  UNL1        0.1366
     29 F         140.3286  137.0794  163.2110 F       1  UNL1       -0.2045
     30 C         139.3859  146.7147  156.2591 C.2     1  UNL1        0.4090
     31 O         139.0774  147.3340  157.5900 O.2     1  UNL1       -0.2258
     32 N         140.0949  145.3946  156.1923 N.am    1  UNL1       -0.2181
     33 C         140.4034  144.7754  154.8614 C.3     1  UNL1        0.1237
     34 C         139.8414  148.5176  154.4446 C.3     1  UNL1        0.2574
     35 O         138.9852  147.4157  154.9949 O.3     1  UNL1       -0.4302
@<TRIPOS>BOND
     1    34    35    1
     2    35    30    1
     3    30    31    2
     4    30    32   am
     5    32    33    1
     6    32     1    1
     7     1     2   ar
     8     2     3    1
     9     2     4   ar
    10     4     5   ar
    11     5    13    1
    12    13    14   ar
    13    14    15   ar
    14    15    22    1
    15    22    23    1
    16    23    24   ar
    17    24    25   ar
    18    25    26   ar
    19    26    27   ar
    20    27    28   ar
    21    28    29    1
    22    15    16   ar
    23    16    17   ar
    24    17    18   ar
    25    18    19   ar
    26    19    20   ar
    27    20    21   ar
    28     5     6   ar
    29     6     7   ar
    30     7     8    1
    31     7     1   ar
    32    21    13   ar
    33    28    23   ar
    34    21    16   ar
    35     3     9    1
    36     3    10    1
    37     8    11    1
    38     8    12    1
@<TRIPOS>MOLECULE
*****
 35 38 0 0 0
SMALL
GASTEIGER

@<TRIPOS>ATOM
      1 C         141.1234  137.7281  156.4491 C.ar    1  UNL1        0.1193
      2 C         139.6648  137.6376  156.7870 C.ar    1  UNL1        0.1437
      3 N         138.6766  137.2194  155.7388 N.pl3   1  UNL1       -0.3415
      4 N         139.1943  137.9653  158.1731 N.ar    1  UNL1       -0.2093
      5 C         140.1823  138.3835  159.2213 C.ar    1  UNL1        0.1841
      6 N         141.6410  138.4740  158.8834 N.ar    1  UNL1       -0.2093
      7 C         142.1115  138.1463  157.4973 C.ar    1  UNL1        0.1437
      8 N         143.5701  138.2367  157.1595 N.pl3   1  UNL1       -0.3415
      9 H         138.9854  137.0043  154.8291 H       1  UNL1        0.1438
     10 H         137.7193  137.1600  155.9606 H       1  UNL1        0.1438
     11 H         144.2187  138.5112  157.8474 H       1  UNL1        0.1438
     12 H         143.8790  138.0216  156.2497 H       1  UNL1        0.1438
     13 C         139.7118  138.7112  160.6074 C.ar    1  UNL1        0.1343
     14 N         139.7677  137.7984  161.7963 N.ar    1  UNL1       -0.2272
     15 C         139.1932  138.5324  162.9716 C.ar    1  UNL1        0.1288
     16 N         138.7823  139.8989  162.5090 N.ar    1  UNL1       -0.2919
     17 C         138.1578  141.0567  163.2295 C.ar    1  UNL1        0.0811
     18 C         137.8537  142.3251  162.4889 C.ar    1  UNL1        0.0191
     19 C         138.1742  142.4357  161.0277 C.ar    1  UNL1        0.0031
     20 C         138.7988  141.2778  160.3072 C.ar    1  UNL1        0.0192
     21 C         139.1028  140.0094  161.0478 C.ar    1  UNL1        0.0857
     22 C         139.0541  137.9944  164.3648 C.3     1  UNL1        0.0928
     23 C         139.7050  138.7077  165.5128 C.ar    1  UNL1        0.0128
     24 C         141.1891  138.9249  165.5163 C.ar    1  UNL1       -0.0016
     25 C         141.8400  139.6381  166.6642 C.ar    1  UNL1       -0.0002
     26 C         141.0067  140.1342  167.8085 C.ar    1  UNL1        0.0023
     27 C         139.5225  139.9171  167.8049 C.ar    1  UNL1        0.0293
     28 C         138.8716  139.2038  166.6571 C.ar    1  UNL1        0.1366
     29 F         137.3874  138.9867  166.6535 F       1  UNL1       -0.2045
     30 C         141.8750  135.9767  154.6835 C.2     1  UNL1        0.4090
     31 O         141.6857  134.8807  155.6900 O.2     1  UNL1       -0.2258
     32 N         141.5939  137.4003  155.0630 N.am    1  UNL1       -0.2181
     33 C         141.7832  138.4963  154.0565 C.3     1  UNL1        0.1237
     34 C         141.4114  134.9941  152.3234 C.3     1  UNL1        0.2574
     35 O         142.3456  135.6488  153.2974 O.3     1  UNL1       -0.4302
@<TRIPOS>BOND
     1    34    35    1
     2    35    30    1
     3    30    31    2
     4    30    32   am
     5    32    33    1
     6    32     1    1
     7     1     2   ar
     8     2     3    1
     9     2     4   ar
    10     4     5   ar
    11     5    13    1
    12    13    14   ar
    13    14    15   ar
    14    15    22    1
    15    22    23    1
    16    23    24   ar
    17    24    25   ar
    18    25    26   ar
    19    26    27   ar
    20    27    28   ar
    21    28    29    1
    22    15    16   ar
    23    16    17   ar
    24    17    18   ar
    25    18    19   ar
    26    19    20   ar
    27    20    21   ar
    28     5     6   ar
    29     6     7   ar
    30     7     8    1
    31     7     1   ar
    32    21    13   ar
    33    28    23   ar
    34    21    16   ar
    35     3     9    1
    36     3    10    1
    37     8    11    1
    38     8    12    1
