@<TRIPOS>MOLECULE
*****
 42 46 0 0 0
SMALL
GASTEIGER

@<TRIPOS>ATOM
      1 C         141.7177  138.9483  158.6209 C.3     1  UNL1        0.1031
      2 C         141.7386  136.1613  155.0879 C.ar    1  UNL1        0.0536
      3 C         142.9879  136.3597  155.8941 C.ar    1  UNL1        0.0042
      4 C         142.9809  137.2887  157.0718 C.ar    1  UNL1       -0.0025
      5 C         141.7247  138.0193  157.4432 C.ar    1  UNL1       -0.0036
      6 C         140.4754  137.8210  156.6370 C.ar    1  UNL1       -0.0025
      7 C         140.4824  136.8919  155.4594 C.ar    1  UNL1        0.0042
      8 C         141.5891  132.8269  152.9410 C.3     1  UNL1        0.1153
      9 N         141.5821  133.7559  154.1187 N.am    1  UNL1       -0.2718
     10 C         141.7456  135.2323  153.9103 C.2     1  UNL1        0.2491
     11 O         141.9161  135.7796  152.5242 O.2     1  UNL1       -0.2699
     12 C         141.4116  133.2084  155.5048 C.3     1  UNL1        0.1254
     13 C         142.5435  132.4819  156.1687 C.3     1  UNL1        0.1586
     14 O         142.8481  132.7308  157.6163 O.3     1  UNL1       -0.3802
     15 H         143.1528  133.6446  157.7302 H       1  UNL1        0.2105
     16 C         142.2869  140.3299  158.4897 C.ar    1  UNL1       -0.0024
     17 C         142.8078  140.8038  157.1652 C.ar    1  UNL1       -0.0026
     18 C         143.3771  142.1854  157.0340 C.ar    1  UNL1        0.0010
     19 C         143.4254  143.0930  158.2272 C.ar    1  UNL1        0.0147
     20 C         142.9046  142.6192  159.5517 C.ar    1  UNL1        0.0500
     21 C         142.3353  141.2376  159.6829 C.ar    1  UNL1        0.0120
     22 N         142.9529  143.5269  160.7449 N.am    1  UNL1       -0.2839
     23 C         143.8221  143.1793  161.9169 C.2     1  UNL1        0.2256
     24 O         144.6429  141.9239  161.8958 O.2     1  UNL1       -0.2748
     25 H         142.4142  144.3508  160.7588 H       1  UNL1        0.1549
     26 C         143.8705  144.0870  163.1101 C.3     1  UNL1        0.0768
     27 C         143.6829  145.4458  163.7170 C.3     1  UNL1        0.0096
     28 C         144.1417  144.3003  164.5698 C.3     1  UNL1        0.0096
     29 N         141.1415  138.4958  159.9297 N.3     1  UNL1       -0.2644
     30 C         139.6645  138.5930  160.1726 C.3     1  UNL1        0.0901
     31 C         139.0883  138.1404  161.4816 C.3     1  UNL1        0.0899
     32 N         139.9891  137.5907  162.5476 N.3     1  UNL1       -0.2665
     33 C         141.4661  137.4936  162.3047 C.3     1  UNL1        0.0899
     34 C         142.0423  137.9461  160.9958 C.3     1  UNL1        0.0901
     35 C         139.4129  137.1382  163.8565 C.3     1  UNL1        0.0992
     36 C         139.4189  138.0622  165.0381 C.ar    1  UNL1       -0.0060
     37 C         140.6146  138.9268  165.3079 C.ar    1  UNL1       -0.0006
     38 C         140.6207  139.8508  166.4895 C.ar    1  UNL1        0.0294
     39 C         139.4310  139.9102  167.4013 C.ar    1  UNL1        0.1401
     40 F         139.4371  140.8342  168.5829 F       1  UNL1       -0.2042
     41 C         138.2354  139.0456  167.1315 C.ar    1  UNL1        0.0294
     42 C         138.2293  138.1216  165.9499 C.ar    1  UNL1       -0.0006
@<TRIPOS>BOND
     1     8     9    1
     2     9    12    1
     3    12    13    1
     4    13    14    1
     5     9    10   am
     6    10    11    2
     7    10     2    1
     8     2     3   ar
     9     3     4   ar
    10     4     5   ar
    11     5     1    1
    12     1    16    1
    13    16    17   ar
    14    17    18   ar
    15    18    19   ar
    16    19    20   ar
    17    20    22    1
    18    22    23   am
    19    23    24    2
    20    23    26    1
    21    26    27    1
    22    27    28    1
    23    20    21   ar
    24     1    29    1
    25    29    30    1
    26    30    31    1
    27    31    32    1
    28    32    35    1
    29    35    36    1
    30    36    37   ar
    31    37    38   ar
    32    38    39   ar
    33    39    40    1
    34    39    41   ar
    35    41    42   ar
    36    32    33    1
    37    33    34    1
    38     5     6   ar
    39     6     7   ar
    40     7     2   ar
    41    21    16   ar
    42    34    29    1
    43    28    26    1
    44    42    36   ar
    45    14    15    1
    46    22    25    1
@<TRIPOS>MOLECULE
*****
 42 46 0 0 0
SMALL
GASTEIGER

@<TRIPOS>ATOM
      1 C         140.4755  139.3352  157.9125 C.3     1  UNL1        0.1031
      2 C         140.0039  143.7657  157.2812 C.ar    1  UNL1        0.0536
      3 C         138.8672  142.9627  157.8407 C.ar    1  UNL1        0.0042
      4 C         139.0244  141.4858  158.0511 C.ar    1  UNL1       -0.0025
      5 C         140.3183  140.8121  157.7021 C.ar    1  UNL1       -0.0036
      6 C         141.4550  141.6151  157.1427 C.ar    1  UNL1       -0.0025
      7 C         141.2978  143.0919  156.9322 C.ar    1  UNL1        0.0042
      8 C         139.0259  147.2334  155.6173 C.3     1  UNL1        0.1153
      9 N         139.1831  145.7566  155.8277 N.am    1  UNL1       -0.2718
     10 C         139.8467  145.2425  157.0708 C.2     1  UNL1        0.2491
     11 O         140.3530  146.2053  158.1036 O.2     1  UNL1       -0.2699
     12 C         138.6767  144.7937  154.7949 C.3     1  UNL1        0.1254
     13 C         137.2023  144.5643  154.6424 C.3     1  UNL1        0.1586
     14 O         136.4344  143.8731  155.7298 O.3     1  UNL1       -0.3802
     15 H         136.7349  142.9538  155.8037 H       1  UNL1        0.2105
     16 C         140.5246  138.4106  156.7325 C.ar    1  UNL1       -0.0024
     17 C         140.0025  138.8647  155.4015 C.ar    1  UNL1       -0.0026
     18 C         140.0516  137.9400  154.2215 C.ar    1  UNL1        0.0010
     19 C         140.6228  136.5612  154.3723 C.ar    1  UNL1        0.0147
     20 C         141.1448  136.1071  155.7031 C.ar    1  UNL1        0.0500
     21 C         141.0957  137.0318  156.8833 C.ar    1  UNL1        0.0120
     22 N         141.7160  134.7283  155.8540 N.am    1  UNL1       -0.2839
     23 C         143.1961  134.5132  155.7413 C.2     1  UNL1        0.2256
     24 O         144.1053  135.6769  155.4779 O.2     1  UNL1       -0.2748
     25 H         141.1193  133.9645  156.0269 H       1  UNL1        0.1549
     26 C         143.7673  133.1344  155.8921 C.3     1  UNL1        0.0768
     27 C         144.8033  132.2130  156.4644 C.3     1  UNL1        0.0096
     28 C         143.7205  131.6678  155.5811 C.3     1  UNL1        0.0096
     29 N         140.5836  138.7831  159.3029 N.3     1  UNL1       -0.2644
     30 C         141.9333  138.5519  159.9153 C.3     1  UNL1        0.0901
     31 C         142.0413  137.9998  161.3058 C.3     1  UNL1        0.0899
     32 N         140.7998  137.6787  162.0839 N.3     1  UNL1       -0.2665
     33 C         139.4501  137.9099  161.4715 C.3     1  UNL1        0.0899
     34 C         139.3420  138.4620  160.0811 C.3     1  UNL1        0.0901
     35 C         140.9078  137.1265  163.4744 C.3     1  UNL1        0.0992
     36 C         140.4621  137.9511  164.6455 C.ar    1  UNL1       -0.0060
     37 C         141.4440  138.8321  165.3595 C.ar    1  UNL1       -0.0006
     38 C         140.9983  139.6567  166.5307 C.ar    1  UNL1        0.0294
     39 C         139.5708  139.6002  166.9878 C.ar    1  UNL1        0.1401
     40 F         139.1251  140.4247  168.1589 F       1  UNL1       -0.2042
     41 C         138.5889  138.7192  166.2738 C.ar    1  UNL1        0.0294
     42 C         139.0346  137.8946  165.1027 C.ar    1  UNL1       -0.0006
@<TRIPOS>BOND
     1     8     9    1
     2     9    12    1
     3    12    13    1
     4    13    14    1
     5     9    10   am
     6    10    11    2
     7    10     2    1
     8     2     3   ar
     9     3     4   ar
    10     4     5   ar
    11     5     1    1
    12     1    16    1
    13    16    17   ar
    14    17    18   ar
    15    18    19   ar
    16    19    20   ar
    17    20    22    1
    18    22    23   am
    19    23    24    2
    20    23    26    1
    21    26    27    1
    22    27    28    1
    23    20    21   ar
    24     1    29    1
    25    29    30    1
    26    30    31    1
    27    31    32    1
    28    32    35    1
    29    35    36    1
    30    36    37   ar
    31    37    38   ar
    32    38    39   ar
    33    39    40    1
    34    39    41   ar
    35    41    42   ar
    36    32    33    1
    37    33    34    1
    38     5     6   ar
    39     6     7   ar
    40     7     2   ar
    41    21    16   ar
    42    34    29    1
    43    28    26    1
    44    42    36   ar
    45    14    15    1
    46    22    25    1
@<TRIPOS>MOLECULE
*****
 42 46 0 0 0
SMALL
GASTEIGER

@<TRIPOS>ATOM
      1 C         138.6103  142.4856  156.9804 C.3     1  UNL1        0.1031
      2 C         139.2246  146.6281  155.3335 C.ar    1  UNL1        0.0536
      3 C         137.9979  145.8482  154.9636 C.ar    1  UNL1        0.0042
      4 C         137.7931  144.4674  155.5126 C.ar    1  UNL1       -0.0025
      5 C         138.8151  143.8664  156.4314 C.ar    1  UNL1       -0.0036
      6 C         140.0418  144.6463  156.8013 C.ar    1  UNL1       -0.0025
      7 C         140.2466  146.0271  156.2524 C.ar    1  UNL1        0.0042
      8 C         139.1924  150.5848  155.0273 C.3     1  UNL1        0.1153
      9 N         138.9876  149.2039  155.5762 N.am    1  UNL1       -0.2718
     10 C         139.4294  148.0089  154.7845 C.2     1  UNL1        0.2491
     11 O         140.0759  148.1948  153.4439 O.2     1  UNL1       -0.2699
     12 C         138.3410  149.0181  156.9169 C.3     1  UNL1        0.1254
     13 C         138.2106  150.1817  157.8545 C.3     1  UNL1        0.1586
     14 O         137.7910  149.9556  159.2768 O.3     1  UNL1       -0.3802
     15 H         136.8782  149.6282  159.2965 H       1  UNL1        0.2105
     16 C         137.8036  141.4837  156.2087 C.ar    1  UNL1       -0.0024
     17 C         138.4940  140.4702  155.3449 C.ar    1  UNL1       -0.0026
     18 C         137.6873  139.4683  154.5733 C.ar    1  UNL1        0.0010
     19 C         136.1902  139.4799  154.6654 C.ar    1  UNL1        0.0147
     20 C         135.4998  140.4934  155.5291 C.ar    1  UNL1        0.0500
     21 C         136.3065  141.4953  156.3008 C.ar    1  UNL1        0.0120
     22 N         134.0027  140.5050  155.6212 N.am    1  UNL1       -0.2839
     23 C         133.3186  139.8721  156.7966 C.2     1  UNL1        0.2256
     24 O         134.1317  139.2275  157.8799 O.2     1  UNL1       -0.2748
     25 H         133.4690  140.9281  154.9103 H       1  UNL1        0.1549
     26 C         131.8215  139.8837  156.8887 C.3     1  UNL1        0.0768
     27 C         130.5635  139.5562  157.6370 C.3     1  UNL1        0.0096
     28 C         130.4865  140.2314  156.2998 C.3     1  UNL1        0.0096
     29 N         139.2122  142.1066  158.3010 N.3     1  UNL1       -0.2644
     30 C         140.4333  141.2366  158.3466 C.3     1  UNL1        0.0901
     31 C         141.0352  140.8576  159.6673 C.3     1  UNL1        0.0899
     32 N         140.4160  141.3486  160.9422 N.3     1  UNL1       -0.2665
     33 C         139.1950  142.2187  160.8966 C.3     1  UNL1        0.0899
     34 C         138.5931  142.5977  159.5760 C.3     1  UNL1        0.0901
     35 C         141.0180  140.9697  162.2629 C.3     1  UNL1        0.0992
     36 C         140.1406  140.4638  163.3695 C.ar    1  UNL1       -0.0060
     37 C         139.8393  141.3411  164.5483 C.ar    1  UNL1       -0.0006
     38 C         138.9620  140.8352  165.6548 C.ar    1  UNL1        0.0294
     39 C         138.3859  139.4521  165.5825 C.ar    1  UNL1        0.1401
     40 F         137.5086  138.9462  166.6890 F       1  UNL1       -0.2042
     41 C         138.6873  138.5749  164.4037 C.ar    1  UNL1        0.0294
     42 C         139.5646  139.0807  163.2972 C.ar    1  UNL1       -0.0006
@<TRIPOS>BOND
     1     8     9    1
     2     9    12    1
     3    12    13    1
     4    13    14    1
     5     9    10   am
     6    10    11    2
     7    10     2    1
     8     2     3   ar
     9     3     4   ar
    10     4     5   ar
    11     5     1    1
    12     1    16    1
    13    16    17   ar
    14    17    18   ar
    15    18    19   ar
    16    19    20   ar
    17    20    22    1
    18    22    23   am
    19    23    24    2
    20    23    26    1
    21    26    27    1
    22    27    28    1
    23    20    21   ar
    24     1    29    1
    25    29    30    1
    26    30    31    1
    27    31    32    1
    28    32    35    1
    29    35    36    1
    30    36    37   ar
    31    37    38   ar
    32    38    39   ar
    33    39    40    1
    34    39    41   ar
    35    41    42   ar
    36    32    33    1
    37    33    34    1
    38     5     6   ar
    39     6     7   ar
    40     7     2   ar
    41    21    16   ar
    42    34    29    1
    43    28    26    1
    44    42    36   ar
    45    14    15    1
    46    22    25    1
@<TRIPOS>MOLECULE
*****
 42 46 0 0 0
SMALL
GASTEIGER

@<TRIPOS>ATOM
      1 C         141.4887  139.3735  158.9612 C.3     1  UNL1        0.1031
      2 C         141.7869  136.5099  155.5027 C.ar    1  UNL1        0.0536
      3 C         143.0308  137.1044  156.0936 C.ar    1  UNL1        0.0042
      4 C         142.9314  138.0590  157.2464 C.ar    1  UNL1       -0.0025
      5 C         141.5881  138.4189  157.8084 C.ar    1  UNL1       -0.0036
      6 C         140.3442  137.8244  157.2175 C.ar    1  UNL1       -0.0025
      7 C         140.4436  136.8699  156.0647 C.ar    1  UNL1        0.0042
      8 C         142.2372  133.1437  153.4494 C.3     1  UNL1        0.1153
      9 N         142.1378  134.0983  154.6022 N.am    1  UNL1       -0.2718
     10 C         141.8864  135.5553  154.3499 C.2     1  UNL1        0.2491
     11 O         141.7343  136.0579  152.9448 O.2     1  UNL1       -0.2699
     12 C         142.2899  133.5957  156.0074 C.3     1  UNL1        0.1254
     13 C         142.5725  132.1441  156.2582 C.3     1  UNL1        0.1586
     14 O         142.8359  131.6615  157.6539 O.3     1  UNL1       -0.3802
     15 H         143.6650  132.0467  157.9781 H       1  UNL1        0.2105
     16 C         142.0395  140.7629  158.8341 C.ar    1  UNL1       -0.0024
     17 C         143.2467  141.1666  159.6279 C.ar    1  UNL1       -0.0026
     18 C         143.7975  142.5559  159.5008 C.ar    1  UNL1        0.0010
     19 C         143.1413  143.5416  158.5801 C.ar    1  UNL1        0.0147
     20 C         141.9342  143.1380  157.7864 C.ar    1  UNL1        0.0500
     21 C         141.3833  141.7486  157.9134 C.ar    1  UNL1        0.0120
     22 N         141.2780  144.1237  156.8657 N.am    1  UNL1       -0.2839
     23 C         140.3318  145.1493  157.4162 C.2     1  UNL1        0.2256
     24 O         140.0419  145.1892  158.8874 O.2     1  UNL1       -0.2748
     25 H         141.4682  144.0976  155.9002 H       1  UNL1        0.1549
     26 C         139.6756  146.1350  156.4955 C.3     1  UNL1        0.0768
     27 C         139.1651  146.4992  155.1329 C.3     1  UNL1        0.0096
     28 C         139.0495  147.4782  156.2634 C.3     1  UNL1        0.0096
     29 N         140.8384  138.9387  160.2410 N.3     1  UNL1       -0.2644
     30 C         141.5854  138.0616  161.2016 C.3     1  UNL1        0.0901
     31 C         140.9351  137.6268  162.4815 C.3     1  UNL1        0.0899
     32 N         139.5378  138.0690  162.8007 N.3     1  UNL1       -0.2665
     33 C         138.7907  138.9460  161.8401 C.3     1  UNL1        0.0899
     34 C         139.4410  139.3809  160.5603 C.3     1  UNL1        0.0901
     35 C         138.8874  137.6342  164.0806 C.3     1  UNL1        0.0992
     36 C         139.0938  138.4304  165.3350 C.ar    1  UNL1       -0.0060
     37 C         138.0396  138.4355  166.4021 C.ar    1  UNL1       -0.0006
     38 C         138.2459  139.2317  167.6564 C.ar    1  UNL1        0.0294
     39 C         139.5066  140.0229  167.8437 C.ar    1  UNL1        0.1401
     40 F         139.7130  140.8191  169.0981 F       1  UNL1       -0.2042
     41 C         140.5607  140.0177  166.7766 C.ar    1  UNL1        0.0294
     42 C         140.3543  139.2215  165.5223 C.ar    1  UNL1       -0.0006
@<TRIPOS>BOND
     1     8     9    1
     2     9    12    1
     3    12    13    1
     4    13    14    1
     5     9    10   am
     6    10    11    2
     7    10     2    1
     8     2     3   ar
     9     3     4   ar
    10     4     5   ar
    11     5     1    1
    12     1    16    1
    13    16    17   ar
    14    17    18   ar
    15    18    19   ar
    16    19    20   ar
    17    20    22    1
    18    22    23   am
    19    23    24    2
    20    23    26    1
    21    26    27    1
    22    27    28    1
    23    20    21   ar
    24     1    29    1
    25    29    30    1
    26    30    31    1
    27    31    32    1
    28    32    35    1
    29    35    36    1
    30    36    37   ar
    31    37    38   ar
    32    38    39   ar
    33    39    40    1
    34    39    41   ar
    35    41    42   ar
    36    32    33    1
    37    33    34    1
    38     5     6   ar
    39     6     7   ar
    40     7     2   ar
    41    21    16   ar
    42    34    29    1
    43    28    26    1
    44    42    36   ar
    45    14    15    1
    46    22    25    1
@<TRIPOS>MOLECULE
*****
 42 46 0 0 0
SMALL
GASTEIGER

@<TRIPOS>ATOM
      1 C         140.3287  139.1832  158.8986 C.3     1  UNL1        0.1031
      2 C         139.9936  143.5160  157.7307 C.ar    1  UNL1        0.0536
      3 C         138.9197  142.8778  158.5609 C.ar    1  UNL1        0.0042
      4 C         139.0314  141.4335  158.9502 C.ar    1  UNL1       -0.0025
      5 C         140.2170  140.6275  158.5093 C.ar    1  UNL1       -0.0036
      6 C         141.2910  141.2657  157.6791 C.ar    1  UNL1       -0.0025
      7 C         141.1793  142.7099  157.2898 C.ar    1  UNL1        0.0042
      8 C         139.0873  146.7857  155.6721 C.3     1  UNL1        0.1153
      9 N         139.1990  145.3414  156.0614 N.am    1  UNL1       -0.2718
     10 C         139.8819  144.9603  157.3413 C.2     1  UNL1        0.2491
     11 O         140.4532  146.0235  158.2320 O.2     1  UNL1       -0.2699
     12 C         138.6277  144.2782  155.1707 C.3     1  UNL1        0.1254
     13 C         137.1461  144.2018  154.9491 C.3     1  UNL1        0.1586
     14 O         136.2596  143.6087  156.0039 O.3     1  UNL1       -0.3802
     15 H         136.4583  142.6641  156.0996 H       1  UNL1        0.2105
     16 C         139.8642  138.7331  160.2520 C.ar    1  UNL1       -0.0024
     17 C         138.4054  138.4889  160.5014 C.ar    1  UNL1       -0.0026
     18 C         137.9409  138.0389  161.8548 C.ar    1  UNL1        0.0010
     19 C         138.9352  137.8330  162.9588 C.ar    1  UNL1        0.0147
     20 C         140.3940  138.0772  162.7095 C.ar    1  UNL1        0.0500
     21 C         140.8586  138.5273  161.3560 C.ar    1  UNL1        0.0120
     22 N         141.3884  137.8713  163.8135 N.am    1  UNL1       -0.2839
     23 C         141.5776  138.9297  164.8594 C.2     1  UNL1        0.2256
     24 O         140.7724  140.1940  164.8014 O.2     1  UNL1       -0.2748
     25 H         141.9168  137.0415  163.8517 H       1  UNL1        0.1549
     26 C         142.5719  138.7238  165.9635 C.3     1  UNL1        0.0768
     27 C         143.0269  138.9888  167.3680 C.3     1  UNL1        0.0096
     28 C         143.8391  138.1023  166.4712 C.3     1  UNL1        0.0096
     29 N         140.9049  138.1889  157.9346 N.3     1  UNL1       -0.2644
     30 C         142.3336  137.7530  158.0711 C.3     1  UNL1        0.0901
     31 C         142.9098  136.7587  157.1069 C.3     1  UNL1        0.0899
     32 N         142.0572  136.2004  156.0063 N.3     1  UNL1       -0.2665
     33 C         140.6284  136.6363  155.8698 C.3     1  UNL1        0.0899
     34 C         140.0523  137.6306  156.8339 C.3     1  UNL1        0.0901
     35 C         142.6333  135.2061  155.0422 C.3     1  UNL1        0.0992
     36 C         142.4256  133.7375  155.2658 C.ar    1  UNL1       -0.0060
     37 C         141.5774  132.9466  154.3143 C.ar    1  UNL1       -0.0006
     38 C         141.3697  131.4779  154.5379 C.ar    1  UNL1        0.0294
     39 C         142.0101  130.8002  155.7129 C.ar    1  UNL1        0.1401
     40 F         141.8023  129.3316  155.9365 F       1  UNL1       -0.2042
     41 C         142.8582  131.5911  156.6643 C.ar    1  UNL1        0.0294
     42 C         143.0659  133.0597  156.4407 C.ar    1  UNL1       -0.0006
@<TRIPOS>BOND
     1     8     9    1
     2     9    12    1
     3    12    13    1
     4    13    14    1
     5     9    10   am
     6    10    11    2
     7    10     2    1
     8     2     3   ar
     9     3     4   ar
    10     4     5   ar
    11     5     1    1
    12     1    16    1
    13    16    17   ar
    14    17    18   ar
    15    18    19   ar
    16    19    20   ar
    17    20    22    1
    18    22    23   am
    19    23    24    2
    20    23    26    1
    21    26    27    1
    22    27    28    1
    23    20    21   ar
    24     1    29    1
    25    29    30    1
    26    30    31    1
    27    31    32    1
    28    32    35    1
    29    35    36    1
    30    36    37   ar
    31    37    38   ar
    32    38    39   ar
    33    39    40    1
    34    39    41   ar
    35    41    42   ar
    36    32    33    1
    37    33    34    1
    38     5     6   ar
    39     6     7   ar
    40     7     2   ar
    41    21    16   ar
    42    34    29    1
    43    28    26    1
    44    42    36   ar
    45    14    15    1
    46    22    25    1
@<TRIPOS>MOLECULE
*****
 42 46 0 0 0
SMALL
GASTEIGER

@<TRIPOS>ATOM
      1 C         141.6242  139.0059  158.7638 C.3     1  UNL1        0.1031
      2 C         141.7990  136.0922  155.3390 C.ar    1  UNL1        0.0536
      3 C         143.0511  136.4517  156.0825 C.ar    1  UNL1        0.0042
      4 C         142.9929  137.4230  157.2241 C.ar    1  UNL1       -0.0025
      5 C         141.6824  138.0347  157.6222 C.ar    1  UNL1       -0.0036
      6 C         140.4303  137.6751  156.8787 C.ar    1  UNL1       -0.0025
      7 C         140.4886  136.7039  155.7371 C.ar    1  UNL1        0.0042
      8 C         142.0741  132.6828  153.3264 C.3     1  UNL1        0.1153
      9 N         142.0158  133.6541  154.4680 N.am    1  UNL1       -0.2718
     10 C         141.8573  135.1209  154.1974 C.2     1  UNL1        0.2491
     11 O         141.7570  135.6165  152.7852 O.2     1  UNL1       -0.2699
     12 C         142.1161  133.1585  155.8802 C.3     1  UNL1        0.1254
     13 C         142.4891  131.7307  156.1493 C.3     1  UNL1        0.1586
     14 O         142.8233  131.2930  157.5446 O.3     1  UNL1       -0.3802
     15 H         143.6387  131.7312  157.8343 H       1  UNL1        0.2105
     16 C         142.2085  140.3789  158.6110 C.ar    1  UNL1       -0.0024
     17 C         141.3825  141.5867  158.9412 C.ar    1  UNL1       -0.0026
     18 C         141.9668  142.9597  158.7884 C.ar    1  UNL1        0.0010
     19 C         143.3773  143.1250  158.3054 C.ar    1  UNL1        0.0147
     20 C         144.2033  141.9173  157.9752 C.ar    1  UNL1        0.0500
     21 C         143.6190  140.5442  158.1280 C.ar    1  UNL1        0.0120
     22 N         145.6138  142.0826  157.4922 N.am    1  UNL1       -0.2839
     23 C         145.9363  141.8921  156.0397 C.2     1  UNL1        0.2256
     24 O         144.8484  141.5364  155.0702 O.2     1  UNL1       -0.2748
     25 H         146.3278  142.3161  158.1284 H       1  UNL1        0.1549
     26 C         147.3468  142.0574  155.5567 C.3     1  UNL1        0.0768
     27 C         148.8228  141.9215  155.7863 C.3     1  UNL1        0.0096
     28 C         148.3136  142.4797  154.4905 C.3     1  UNL1        0.0096
     29 N         140.9815  138.6042  160.0582 N.3     1  UNL1       -0.2644
     30 C         141.8163  138.0268  161.1626 C.3     1  UNL1        0.0901
     31 C         141.1736  137.6251  162.4571 C.3     1  UNL1        0.0899
     32 N         139.6961  137.8008  162.6471 N.3     1  UNL1       -0.2665
     33 C         138.8613  138.3782  161.5427 C.3     1  UNL1        0.0899
     34 C         139.5039  138.7799  160.2483 C.3     1  UNL1        0.0901
     35 C         139.0534  137.3991  163.9416 C.3     1  UNL1        0.0992
     36 C         139.1701  138.2876  165.1444 C.ar    1  UNL1       -0.0060
     37 C         138.1066  138.2619  166.2020 C.ar    1  UNL1       -0.0006
     38 C         138.2234  139.1505  167.4048 C.ar    1  UNL1        0.0294
     39 C         139.4037  140.0648  167.5501 C.ar    1  UNL1        0.1401
     40 F         139.5205  140.9534  168.7529 F       1  UNL1       -0.2042
     41 C         140.4672  140.0904  166.4926 C.ar    1  UNL1        0.0294
     42 C         140.3504  139.2019  165.2898 C.ar    1  UNL1       -0.0006
@<TRIPOS>BOND
     1     8     9    1
     2     9    12    1
     3    12    13    1
     4    13    14    1
     5     9    10   am
     6    10    11    2
     7    10     2    1
     8     2     3   ar
     9     3     4   ar
    10     4     5   ar
    11     5     1    1
    12     1    16    1
    13    16    17   ar
    14    17    18   ar
    15    18    19   ar
    16    19    20   ar
    17    20    22    1
    18    22    23   am
    19    23    24    2
    20    23    26    1
    21    26    27    1
    22    27    28    1
    23    20    21   ar
    24     1    29    1
    25    29    30    1
    26    30    31    1
    27    31    32    1
    28    32    35    1
    29    35    36    1
    30    36    37   ar
    31    37    38   ar
    32    38    39   ar
    33    39    40    1
    34    39    41   ar
    35    41    42   ar
    36    32    33    1
    37    33    34    1
    38     5     6   ar
    39     6     7   ar
    40     7     2   ar
    41    21    16   ar
    42    34    29    1
    43    28    26    1
    44    42    36   ar
    45    14    15    1
    46    22    25    1
@<TRIPOS>MOLECULE
*****
 42 46 0 0 0
SMALL
GASTEIGER

@<TRIPOS>ATOM
      1 C         142.9925  138.8866  158.1107 C.3     1  UNL1        0.1031
      2 C         142.3976  138.8962  162.5712 C.ar    1  UNL1        0.0536
      3 C         141.4572  139.6608  161.6875 C.ar    1  UNL1        0.0042
      4 C         141.6555  139.6576  160.2007 C.ar    1  UNL1       -0.0025
      5 C         142.7942  138.8898  159.5976 C.ar    1  UNL1       -0.0036
      6 C         143.7346  138.1252  160.4813 C.ar    1  UNL1       -0.0025
      7 C         143.5363  138.1284  161.9681 C.ar    1  UNL1        0.0042
      8 C         142.7058  139.9192  166.3933 C.3     1  UNL1        0.1153
      9 N         142.9041  139.9159  164.9065 N.am    1  UNL1       -0.2718
     10 C         142.1993  138.8994  164.0580 C.2     1  UNL1        0.2491
     11 O         141.2962  137.8861  164.6964 O.2     1  UNL1       -0.2699
     12 C         143.8072  140.9293  164.2681 C.3     1  UNL1        0.1254
     13 C         145.2626  140.6213  164.0758 C.3     1  UNL1        0.1586
     14 O         146.2432  141.7360  163.8616 O.3     1  UNL1       -0.3802
     15 H         146.0566  142.1728  163.0159 H       1  UNL1        0.2105
     16 C         142.2560  137.8965  157.2580 C.ar    1  UNL1       -0.0024
     17 C         140.9443  138.2726  156.6349 C.ar    1  UNL1       -0.0026
     18 C         140.2078  137.2825  155.7821 C.ar    1  UNL1        0.0010
     19 C         140.7829  135.9162  155.5525 C.ar    1  UNL1        0.0147
     20 C         142.0944  135.5401  156.1755 C.ar    1  UNL1        0.0500
     21 C         142.8310  136.5302  157.0283 C.ar    1  UNL1        0.0120
     22 N         142.6695  134.1739  155.9458 N.am    1  UNL1       -0.2839
     23 C         143.4162  133.4798  157.0461 C.2     1  UNL1        0.2256
     24 O         143.5880  134.1519  158.3761 O.2     1  UNL1       -0.2748
     25 H         142.5568  133.7328  155.0729 H       1  UNL1        0.1549
     26 C         143.9913  132.1136  156.8164 C.3     1  UNL1        0.0768
     27 C         144.0344  130.6505  157.1440 C.3     1  UNL1        0.0096
     28 C         144.9442  131.2104  156.0910 C.3     1  UNL1        0.0096
     29 N         143.9273  139.8734  157.4766 N.3     1  UNL1       -0.2644
     30 C         144.3547  141.0954  158.2343 C.3     1  UNL1        0.0901
     31 C         145.2896  142.0823  157.6002 C.3     1  UNL1        0.0899
     32 N         145.7970  141.8472  156.2084 N.3     1  UNL1       -0.2665
     33 C         145.3696  140.6252  155.4506 C.3     1  UNL1        0.0899
     34 C         144.4348  139.6384  156.0847 C.3     1  UNL1        0.0901
     35 C         146.7319  142.8341  155.5742 C.3     1  UNL1        0.0992
     36 C         147.9526  142.3513  154.8483 C.ar    1  UNL1       -0.0060
     37 C         148.0076  142.4120  153.3505 C.ar    1  UNL1       -0.0006
     38 C         149.2282  141.9292  152.6247 C.ar    1  UNL1        0.0294
     39 C         150.3939  141.3857  153.3967 C.ar    1  UNL1        0.1401
     40 F         151.6146  140.9029  152.6708 F       1  UNL1       -0.2042
     41 C         150.3389  141.3250  154.8944 C.ar    1  UNL1        0.0294
     42 C         149.1182  141.8079  155.6202 C.ar    1  UNL1       -0.0006
@<TRIPOS>BOND
     1     8     9    1
     2     9    12    1
     3    12    13    1
     4    13    14    1
     5     9    10   am
     6    10    11    2
     7    10     2    1
     8     2     3   ar
     9     3     4   ar
    10     4     5   ar
    11     5     1    1
    12     1    16    1
    13    16    17   ar
    14    17    18   ar
    15    18    19   ar
    16    19    20   ar
    17    20    22    1
    18    22    23   am
    19    23    24    2
    20    23    26    1
    21    26    27    1
    22    27    28    1
    23    20    21   ar
    24     1    29    1
    25    29    30    1
    26    30    31    1
    27    31    32    1
    28    32    35    1
    29    35    36    1
    30    36    37   ar
    31    37    38   ar
    32    38    39   ar
    33    39    40    1
    34    39    41   ar
    35    41    42   ar
    36    32    33    1
    37    33    34    1
    38     5     6   ar
    39     6     7   ar
    40     7     2   ar
    41    21    16   ar
    42    34    29    1
    43    28    26    1
    44    42    36   ar
    45    14    15    1
    46    22    25    1
@<TRIPOS>MOLECULE
*****
 42 46 0 0 0
SMALL
GASTEIGER

@<TRIPOS>ATOM
      1 C         140.5072  139.3635  158.6062 C.3     1  UNL1        0.1031
      2 C         139.3111  143.3192  156.8254 C.ar    1  UNL1        0.0536
      3 C         138.5481  142.7592  157.9890 C.ar    1  UNL1        0.0042
      4 C         138.9468  141.4406  158.5827 C.ar    1  UNL1       -0.0025
      5 C         140.1085  140.6821  158.0126 C.ar    1  UNL1       -0.0036
      6 C         140.8715  141.2421  156.8490 C.ar    1  UNL1       -0.0025
      7 C         140.4729  142.5607  156.2554 C.ar    1  UNL1        0.0042
      8 C         139.1668  147.2207  156.1128 C.3     1  UNL1        0.1153
      9 N         139.5654  145.9021  156.7064 N.am    1  UNL1       -0.2718
     10 C         138.9125  144.6378  156.2318 C.2     1  UNL1        0.2491
     11 O         137.8608  144.6922  155.1637 O.2     1  UNL1       -0.2699
     12 C         140.6172  145.8478  157.7746 C.3     1  UNL1        0.1254
     13 C         142.0692  145.8642  157.3990 C.3     1  UNL1        0.1586
     14 O         142.9922  144.8055  157.9256 O.3     1  UNL1       -0.3802
     15 H         143.0725  144.8962  158.8880 H       1  UNL1        0.2105
     16 C         140.3795  139.1367  160.0835 C.ar    1  UNL1       -0.0024
     17 C         139.2803  138.2661  160.6164 C.ar    1  UNL1       -0.0026
     18 C         139.1526  138.0394  162.0936 C.ar    1  UNL1        0.0010
     19 C         140.1241  138.6831  163.0380 C.ar    1  UNL1        0.0147
     20 C         141.2232  139.5536  162.5051 C.ar    1  UNL1        0.0500
     21 C         141.3510  139.7804  161.0278 C.ar    1  UNL1        0.0120
     22 N         142.1947  140.1974  163.4495 N.am    1  UNL1       -0.2839
     23 C         141.9185  141.5691  163.9899 C.2     1  UNL1        0.2256
     24 O         140.6707  142.2971  163.5859 O.2     1  UNL1       -0.2748
     25 H         143.0137  139.7196  163.7146 H       1  UNL1        0.1549
     26 C         142.8900  142.2128  164.9342 C.3     1  UNL1        0.0768
     27 C         143.3954  142.4297  166.3297 C.3     1  UNL1        0.0096
     28 C         144.0671  143.1110  165.1744 C.3     1  UNL1        0.0096
     29 N         141.0336  138.2716  157.7226 N.3     1  UNL1       -0.2644
     30 C         142.4748  137.8652  157.8102 C.3     1  UNL1        0.0901
     31 C         143.0011  136.7733  156.9266 C.3     1  UNL1        0.0899
     32 N         142.0863  136.0879  155.9553 N.3     1  UNL1       -0.2665
     33 C         140.6451  136.4944  155.8677 C.3     1  UNL1        0.0899
     34 C         140.1187  137.5862  156.7513 C.3     1  UNL1        0.0901
     35 C         142.6126  134.9960  155.0717 C.3     1  UNL1        0.0992
     36 C         142.7517  133.6010  155.6051 C.ar    1  UNL1       -0.0060
     37 C         143.8171  133.2862  156.6130 C.ar    1  UNL1       -0.0006
     38 C         143.9561  131.8912  157.1465 C.ar    1  UNL1        0.0294
     39 C         143.0297  130.8110  156.6720 C.ar    1  UNL1        0.1401
     40 F         143.1687  129.4159  157.2054 F       1  UNL1       -0.2042
     41 C         141.9644  131.1258  155.6641 C.ar    1  UNL1        0.0294
     42 C         141.8254  132.5208  155.1306 C.ar    1  UNL1       -0.0006
@<TRIPOS>BOND
     1     8     9    1
     2     9    12    1
     3    12    13    1
     4    13    14    1
     5     9    10   am
     6    10    11    2
     7    10     2    1
     8     2     3   ar
     9     3     4   ar
    10     4     5   ar
    11     5     1    1
    12     1    16    1
    13    16    17   ar
    14    17    18   ar
    15    18    19   ar
    16    19    20   ar
    17    20    22    1
    18    22    23   am
    19    23    24    2
    20    23    26    1
    21    26    27    1
    22    27    28    1
    23    20    21   ar
    24     1    29    1
    25    29    30    1
    26    30    31    1
    27    31    32    1
    28    32    35    1
    29    35    36    1
    30    36    37   ar
    31    37    38   ar
    32    38    39   ar
    33    39    40    1
    34    39    41   ar
    35    41    42   ar
    36    32    33    1
    37    33    34    1
    38     5     6   ar
    39     6     7   ar
    40     7     2   ar
    41    21    16   ar
    42    34    29    1
    43    28    26    1
    44    42    36   ar
    45    14    15    1
    46    22    25    1
@<TRIPOS>MOLECULE
*****
 42 46 0 0 0
SMALL
GASTEIGER

@<TRIPOS>ATOM
      1 C         138.0336  142.0191  156.9025 C.3     1  UNL1        0.1031
      2 C         139.1440  146.0502  155.2388 C.ar    1  UNL1        0.0536
      3 C         137.7927  145.4662  154.9508 C.ar    1  UNL1        0.0042
      4 C         137.4226  144.1226  155.5053 C.ar    1  UNL1       -0.0025
      5 C         138.4038  143.3628  156.3479 C.ar    1  UNL1       -0.0036
      6 C         139.7550  143.9467  156.6360 C.ar    1  UNL1       -0.0025
      7 C         140.1251  145.2904  156.0815 C.ar    1  UNL1        0.0042
      8 C         139.5553  149.9827  154.8986 C.3     1  UNL1        0.1153
      9 N         139.1852  148.6391  155.4532 N.am    1  UNL1       -0.2718
     10 C         139.5141  147.3939  154.6843 C.2     1  UNL1        0.2491
     11 O         140.2131  147.4924  153.3608 O.2     1  UNL1       -0.2699
     12 C         138.4861  148.5406  156.7767 C.3     1  UNL1        0.1254
     13 C         138.1737  149.7847  157.5543 C.3     1  UNL1        0.1586
     14 O         137.7919  149.6885  159.0017 O.3     1  UNL1       -0.3802
     15 H         136.9414  149.2290  159.0819 H       1  UNL1        0.2105
     16 C         137.3089  141.0266  156.0425 C.ar    1  UNL1       -0.0024
     17 C         138.0768  140.1540  155.0943 C.ar    1  UNL1       -0.0026
     18 C         137.3521  139.1614  154.2344 C.ar    1  UNL1        0.0010
     19 C         135.8595  139.0414  154.3225 C.ar    1  UNL1        0.0147
     20 C         135.0916  139.9140  155.2706 C.ar    1  UNL1        0.0500
     21 C         135.8163  140.9066  156.1307 C.ar    1  UNL1        0.0120
     22 N         133.5990  139.7940  155.3588 N.am    1  UNL1       -0.2839
     23 C         132.9659  139.1889  156.5765 C.2     1  UNL1        0.2256
     24 O         133.8253  138.7037  157.7062 O.2     1  UNL1       -0.2748
     25 H         133.0350  140.1124  154.6174 H       1  UNL1        0.1549
     26 C         131.4733  139.0689  156.6646 C.3     1  UNL1        0.0768
     27 C         130.2427  138.2183  156.7743 C.3     1  UNL1        0.0096
     28 C         130.1187  139.7116  156.7076 C.3     1  UNL1        0.0096
     29 N         138.3882  141.6680  158.3170 N.3     1  UNL1       -0.2644
     30 C         138.4082  142.7341  159.3720 C.3     1  UNL1        0.0901
     31 C         138.7628  142.3829  160.7866 C.3     1  UNL1        0.0899
     32 N         139.0975  140.9656  161.1461 N.3     1  UNL1       -0.2665
     33 C         139.0775  139.8995  160.0911 C.3     1  UNL1        0.0899
     34 C         138.7229  140.2507  158.6766 C.3     1  UNL1        0.0901
     35 C         139.4521  140.6144  162.5607 C.3     1  UNL1        0.0992
     36 C         140.5569  141.3483  163.2612 C.ar    1  UNL1       -0.0060
     37 C         141.9868  141.0710  162.9026 C.ar    1  UNL1       -0.0006
     38 C         143.0916  141.8049  163.6031 C.ar    1  UNL1        0.0294
     39 C         142.7666  142.8161  164.6623 C.ar    1  UNL1        0.1401
     40 F         143.8714  143.5500  165.3628 F       1  UNL1       -0.2042
     41 C         141.3368  143.0934  165.0209 C.ar    1  UNL1        0.0294
     42 C         140.2319  142.3595  164.3204 C.ar    1  UNL1       -0.0006
@<TRIPOS>BOND
     1     8     9    1
     2     9    12    1
     3    12    13    1
     4    13    14    1
     5     9    10   am
     6    10    11    2
     7    10     2    1
     8     2     3   ar
     9     3     4   ar
    10     4     5   ar
    11     5     1    1
    12     1    16    1
    13    16    17   ar
    14    17    18   ar
    15    18    19   ar
    16    19    20   ar
    17    20    22    1
    18    22    23   am
    19    23    24    2
    20    23    26    1
    21    26    27    1
    22    27    28    1
    23    20    21   ar
    24     1    29    1
    25    29    30    1
    26    30    31    1
    27    31    32    1
    28    32    35    1
    29    35    36    1
    30    36    37   ar
    31    37    38   ar
    32    38    39   ar
    33    39    40    1
    34    39    41   ar
    35    41    42   ar
    36    32    33    1
    37    33    34    1
    38     5     6   ar
    39     6     7   ar
    40     7     2   ar
    41    21    16   ar
    42    34    29    1
    43    28    26    1
    44    42    36   ar
    45    14    15    1
    46    22    25    1
