@<TRIPOS>MOLECULE
*****
 30 33 0 0 0
SMALL
GASTEIGER

@<TRIPOS>ATOM
      1 N         138.4807  140.4498  163.7376 N.3     1  UNL1       -0.2679
      2 C         138.7484  141.8925  164.0489 C.3     1  UNL1        0.0978
      3 C         137.6275  142.7842  164.4941 C.3     1  UNL1        0.0224
      4 C         137.8952  144.2270  164.8054 C.3     1  UNL1        0.0065
      5 C         139.2838  144.7780  164.6714 C.3     1  UNL1        0.0277
      6 C         140.4048  143.8862  164.2262 C.ar    1  UNL1       -0.0073
      7 C         141.7935  144.4372  164.0923 C.ar    1  UNL1       -0.0015
      8 C         142.9145  143.5455  163.6471 C.ar    1  UNL1        0.0203
      9 C         142.6468  142.1028  163.3358 C.ar    1  UNL1        0.0985
     10 N         141.2581  141.5518  163.4697 N.ar    1  UNL1       -0.2471
     11 C         140.1371  142.4435  163.9150 C.ar    1  UNL1        0.0695
     12 C         138.1240  140.0377  162.3402 C.3     1  UNL1        0.0725
     13 C         138.1128  138.5850  161.9664 C.3     1  UNL1        0.0187
     14 C         139.3306  137.9586  161.3545 C.3     1  UNL1        0.0183
     15 N         141.1363  136.9910  162.9524 N.3     1  UNL1       -0.3211
     16 C         140.6603  138.0805  162.0378 C.3     1  UNL1        0.0652
     17 H         142.0524  137.2376  163.3270 H       1  UNL1        0.1189
     18 H         141.2060  136.1165  162.4320 H       1  UNL1        0.1189
     19 C         138.5697  139.4192  164.8238 C.3     1  UNL1        0.0886
     20 C         139.6535  139.5100  165.8569 C.3     1  UNL1        0.0749
     21 C         139.3213  139.9330  167.2572 C.3     1  UNL1        0.0447
     22 C         140.4051  140.0238  168.2903 C.ar    1  UNL1       -0.0058
     23 C         140.0730  140.4468  169.6905 C.ar    1  UNL1       -0.0014
     24 C         141.1567  140.5376  170.7235 C.ar    1  UNL1        0.0203
     25 C         142.5726  140.2054  170.3563 C.ar    1  UNL1        0.0985
     26 N         142.9048  139.7823  168.9561 N.ar    1  UNL1       -0.2471
     27 C         141.8210  139.6916  167.9231 C.ar    1  UNL1        0.0710
     28 C         142.1531  139.2685  166.5228 C.3     1  UNL1        0.1148
     29 N         141.0694  139.1777  165.4898 N.3     1  UNL1       -0.2921
     30 H         141.0673  138.2164  165.1489 H       1  UNL1        0.1236
@<TRIPOS>BOND
     1    15    16    1
     2    16    14    1
     3    14    13    1
     4    13    12    1
     5    12     1    1
     6     1    19    1
     7    20    19    1
     8    20    21    1
     9    21    22    1
    10    22    23   ar
    11    23    24   ar
    12    24    25   ar
    13    25    26   ar
    14    26    27   ar
    15    27    28    1
    16    28    29    1
    17     2     1    1
    18     2     3    1
    19     3     4    1
    20     4     5    1
    21     5     6    1
    22     6     7   ar
    23     7     8   ar
    24     8     9   ar
    25     9    10   ar
    26    10    11   ar
    27    29    20    1
    28    11     2    1
    29    27    22   ar
    30    11     6   ar
    31    15    17    1
    32    15    18    1
    33    29    30    1
@<TRIPOS>MOLECULE
*****
 30 33 0 0 0
SMALL
GASTEIGER

@<TRIPOS>ATOM
      1 N         141.5476  140.6386  167.3304 N.3     1  UNL1       -0.2679
      2 C         140.5143  139.7583  166.6920 C.3     1  UNL1        0.0978
      3 C         139.1582  139.6185  167.3174 C.3     1  UNL1        0.0224
      4 C         138.1249  138.7382  166.6790 C.3     1  UNL1        0.0065
      5 C         138.4479  137.9977  165.4152 C.3     1  UNL1        0.0277
      6 C         139.8041  138.1375  164.7898 C.ar    1  UNL1       -0.0073
      7 C         140.1271  137.3970  163.5259 C.ar    1  UNL1       -0.0015
      8 C         141.4832  137.5368  162.9004 C.ar    1  UNL1        0.0203
      9 C         142.5165  138.4170  163.5388 C.ar    1  UNL1        0.0985
     10 N         142.1935  139.1575  164.8027 N.ar    1  UNL1       -0.2471
     11 C         140.8373  139.0178  165.4282 C.ar    1  UNL1        0.0695
     12 C         142.6148  140.0365  168.1956 C.3     1  UNL1        0.0725
     13 C         142.2543  139.4333  169.5209 C.3     1  UNL1        0.0187
     14 C         141.2333  140.0992  170.3951 C.3     1  UNL1        0.0183
     15 N         140.5355  142.1065  171.8897 N.3     1  UNL1       -0.3211
     16 C         141.5989  141.3292  171.1719 C.3     1  UNL1        0.0652
     17 H         140.9587  142.9056  172.3617 H       1  UNL1        0.1189
     18 H         140.0818  141.5061  172.5782 H       1  UNL1        0.1189
     19 C         141.5136  142.1209  167.1036 C.3     1  UNL1        0.0886
     20 C         141.5941  142.6684  165.7094 C.3     1  UNL1        0.0749
     21 C         140.5557  143.6348  165.2220 C.3     1  UNL1        0.0447
     22 C         140.6362  144.1823  163.8277 C.ar    1  UNL1       -0.0058
     23 C         139.5978  145.1487  163.3403 C.ar    1  UNL1       -0.0014
     24 C         139.6784  145.6962  161.9462 C.ar    1  UNL1        0.0203
     25 C         140.7974  145.2772  161.0394 C.ar    1  UNL1        0.0985
     26 N         141.8359  144.3108  161.5268 N.ar    1  UNL1       -0.2471
     27 C         141.7553  143.7634  162.9210 C.ar    1  UNL1        0.0710
     28 C         142.7938  142.7969  163.4085 C.3     1  UNL1        0.1148
     29 N         142.7132  142.2494  164.8026 N.3     1  UNL1       -0.2921
     30 H         143.5827  142.5056  165.2703 H       1  UNL1        0.1236
@<TRIPOS>BOND
     1    15    16    1
     2    16    14    1
     3    14    13    1
     4    13    12    1
     5    12     1    1
     6     1    19    1
     7    20    19    1
     8    20    21    1
     9    21    22    1
    10    22    23   ar
    11    23    24   ar
    12    24    25   ar
    13    25    26   ar
    14    26    27   ar
    15    27    28    1
    16    28    29    1
    17     2     1    1
    18     2     3    1
    19     3     4    1
    20     4     5    1
    21     5     6    1
    22     6     7   ar
    23     7     8   ar
    24     8     9   ar
    25     9    10   ar
    26    10    11   ar
    27    29    20    1
    28    11     2    1
    29    27    22   ar
    30    11     6   ar
    31    15    17    1
    32    15    18    1
    33    29    30    1
@<TRIPOS>MOLECULE
*****
 30 33 0 0 0
SMALL
GASTEIGER

@<TRIPOS>ATOM
      1 N         141.6990  141.3901  167.5402 N.3     1  UNL1       -0.2679
      2 C         142.6259  140.6226  166.6447 C.3     1  UNL1        0.0978
      3 C         142.8534  139.1586  166.8786 C.3     1  UNL1        0.0224
      4 C         143.7803  138.3911  165.9831 C.3     1  UNL1        0.0065
      5 C         144.4796  139.0877  164.8537 C.3     1  UNL1        0.0277
      6 C         144.2520  140.5517  164.6197 C.ar    1  UNL1       -0.0073
      7 C         144.9513  141.2484  163.4902 C.ar    1  UNL1       -0.0015
      8 C         144.7238  142.7124  163.2562 C.ar    1  UNL1        0.0203
      9 C         143.7969  143.4799  164.1518 C.ar    1  UNL1        0.0985
     10 N         143.0976  142.7833  165.2812 N.ar    1  UNL1       -0.2471
     11 C         143.3252  141.3192  165.5152 C.ar    1  UNL1        0.0695
     12 C         142.2569  142.3067  168.5883 C.3     1  UNL1        0.0725
     13 C         143.0709  141.7475  169.7174 C.3     1  UNL1        0.0187
     14 C         142.4729  140.7267  170.6394 C.3     1  UNL1        0.0183
     15 N         140.6417  142.0783  171.8924 N.3     1  UNL1       -0.3211
     16 C         141.0529  140.8727  171.1002 C.3     1  UNL1        0.0652
     17 H         139.6495  142.0134  172.1198 H       1  UNL1        0.1189
     18 H         140.8100  142.9204  171.3421 H       1  UNL1        0.1189
     19 C         140.2143  141.2410  167.3876 C.3     1  UNL1        0.0886
     20 C         139.6109  141.1028  166.0212 C.3     1  UNL1        0.0749
     21 C         139.4700  139.7460  165.3973 C.3     1  UNL1        0.0447
     22 C         138.8666  139.6078  164.0309 C.ar    1  UNL1       -0.0058
     23 C         138.7257  138.2510  163.4070 C.ar    1  UNL1       -0.0014
     24 C         138.1223  138.1129  162.0407 C.ar    1  UNL1        0.0203
     25 C         137.6599  139.3315  161.2983 C.ar    1  UNL1        0.0985
     26 N         137.8008  140.6882  161.9222 N.ar    1  UNL1       -0.2471
     27 C         138.4041  140.8264  163.2885 C.ar    1  UNL1        0.0710
     28 C         138.5451  142.1832  163.9125 C.3     1  UNL1        0.1148
     29 N         139.1484  142.3214  165.2788 N.3     1  UNL1       -0.2921
     30 H         138.4483  142.7754  165.8653 H       1  UNL1        0.1236
@<TRIPOS>BOND
     1    15    16    1
     2    16    14    1
     3    14    13    1
     4    13    12    1
     5    12     1    1
     6     1    19    1
     7    20    19    1
     8    20    21    1
     9    21    22    1
    10    22    23   ar
    11    23    24   ar
    12    24    25   ar
    13    25    26   ar
    14    26    27   ar
    15    27    28    1
    16    28    29    1
    17     2     1    1
    18     2     3    1
    19     3     4    1
    20     4     5    1
    21     5     6    1
    22     6     7   ar
    23     7     8   ar
    24     8     9   ar
    25     9    10   ar
    26    10    11   ar
    27    29    20    1
    28    11     2    1
    29    27    22   ar
    30    11     6   ar
    31    15    17    1
    32    15    18    1
    33    29    30    1
@<TRIPOS>MOLECULE
*****
 30 33 0 0 0
SMALL
GASTEIGER

@<TRIPOS>ATOM
      1 N         140.4934  143.2210  163.3864 N.3     1  UNL1       -0.2679
      2 C         141.9366  143.1049  163.7785 C.3     1  UNL1        0.0978
      3 C         142.7306  144.3387  164.0904 C.3     1  UNL1        0.0224
      4 C         144.1738  144.2227  164.4825 C.3     1  UNL1        0.0065
      5 C         144.8230  142.8729  164.5626 C.3     1  UNL1        0.0277
      6 C         144.0290  141.6391  164.2507 C.ar    1  UNL1       -0.0073
      7 C         144.6782  140.2892  164.3308 C.ar    1  UNL1       -0.0015
      8 C         143.8842  139.0554  164.0189 C.ar    1  UNL1        0.0203
      9 C         142.4410  139.1714  163.6268 C.ar    1  UNL1        0.0985
     10 N         141.7918  140.5212  163.5467 N.ar    1  UNL1       -0.2471
     11 C         142.5858  141.7551  163.8586 C.ar    1  UNL1        0.0695
     12 C         140.1163  143.3364  161.9392 C.3     1  UNL1        0.0725
     13 C         138.7027  143.0769  161.5095 C.3     1  UNL1        0.0187
     14 C         138.2804  141.6922  161.1169 C.3     1  UNL1        0.0183
     15 N         136.7848  141.2854  163.2020 N.3     1  UNL1       -0.3211
     16 C         137.7130  140.7609  162.1468 C.3     1  UNL1        0.0652
     17 H         136.4979  140.5207  163.8131 H       1  UNL1        0.1189
     18 H         135.9617  141.6934  162.7586 H       1  UNL1        0.1189
     19 C         139.4273  143.2215  164.4416 C.3     1  UNL1        0.0886
     20 C         139.5841  142.3703  165.6667 C.3     1  UNL1        0.0749
     21 C         140.1444  142.9634  166.9254 C.3     1  UNL1        0.0447
     22 C         140.3012  142.1121  168.1505 C.ar    1  UNL1       -0.0058
     23 C         140.8615  142.7052  169.4091 C.ar    1  UNL1       -0.0014
     24 C         141.0183  141.8539  170.6342 C.ar    1  UNL1        0.0203
     25 C         140.6148  140.4096  170.6006 C.ar    1  UNL1        0.0985
     26 N         140.0544  139.8166  169.3419 N.ar    1  UNL1       -0.2471
     27 C         139.8977  140.6678  168.1169 C.ar    1  UNL1        0.0710
     28 C         139.3373  140.0748  166.8581 C.3     1  UNL1        0.1148
     29 N         139.1805  140.9260  165.6331 N.3     1  UNL1       -0.2921
     30 H         138.1921  140.9022  165.3825 H       1  UNL1        0.1236
@<TRIPOS>BOND
     1    15    16    1
     2    16    14    1
     3    14    13    1
     4    13    12    1
     5    12     1    1
     6     1    19    1
     7    20    19    1
     8    20    21    1
     9    21    22    1
    10    22    23   ar
    11    23    24   ar
    12    24    25   ar
    13    25    26   ar
    14    26    27   ar
    15    27    28    1
    16    28    29    1
    17     2     1    1
    18     2     3    1
    19     3     4    1
    20     4     5    1
    21     5     6    1
    22     6     7   ar
    23     7     8   ar
    24     8     9   ar
    25     9    10   ar
    26    10    11   ar
    27    29    20    1
    28    11     2    1
    29    27    22   ar
    30    11     6   ar
    31    15    17    1
    32    15    18    1
    33    29    30    1
@<TRIPOS>MOLECULE
*****
 30 33 0 0 0
SMALL
GASTEIGER

@<TRIPOS>ATOM
      1 N         142.8579  138.8557  164.0793 N.3     1  UNL1       -0.2679
      2 C         143.5628  140.1748  163.9650 C.3     1  UNL1        0.0978
      3 C         145.0600  140.2206  163.8848 C.3     1  UNL1        0.0224
      4 C         145.7649  141.5396  163.7705 C.3     1  UNL1        0.0065
      5 C         144.9728  142.8129  163.7364 C.3     1  UNL1        0.0277
      6 C         143.4757  142.7671  163.8167 C.ar    1  UNL1       -0.0073
      7 C         142.6834  144.0405  163.7826 C.ar    1  UNL1       -0.0015
      8 C         141.1863  143.9947  163.8628 C.ar    1  UNL1        0.0203
      9 C         140.4813  142.6756  163.9771 C.ar    1  UNL1        0.0985
     10 N         141.2735  141.4023  164.0112 N.ar    1  UNL1       -0.2471
     11 C         142.7707  141.4481  163.9310 C.ar    1  UNL1        0.0695
     12 C         142.4059  138.1372  162.8426 C.3     1  UNL1        0.0725
     13 C         141.0613  137.4730  162.8102 C.3     1  UNL1        0.0187
     14 C         139.9911  137.9903  161.8953 C.3     1  UNL1        0.0183
     15 N         138.9173  139.2847  163.8757 N.3     1  UNL1       -0.3211
     16 C         138.9556  138.9427  162.4156 C.3     1  UNL1        0.0652
     17 H         138.1562  139.9407  164.0513 H       1  UNL1        0.1189
     18 H         139.8031  139.7107  164.1484 H       1  UNL1        0.1189
     19 C         142.6048  138.2552  165.4303 C.3     1  UNL1        0.0886
     20 C         141.9152  139.0602  166.4917 C.3     1  UNL1        0.0749
     21 C         142.6625  139.4706  167.7259 C.3     1  UNL1        0.0447
     22 C         141.9729  140.2756  168.7873 C.ar    1  UNL1       -0.0058
     23 C         142.7201  140.6860  170.0214 C.ar    1  UNL1       -0.0014
     24 C         142.0305  141.4910  171.0827 C.ar    1  UNL1        0.0203
     25 C         140.5936  141.8855  170.9099 C.ar    1  UNL1        0.0985
     26 N         139.8464  141.4750  169.6758 N.ar    1  UNL1       -0.2471
     27 C         140.5360  140.6701  168.6145 C.ar    1  UNL1        0.0710
     28 C         139.7888  140.2596  167.3803 C.3     1  UNL1        0.1148
     29 N         140.4784  139.4546  166.3190 N.3     1  UNL1       -0.2921
     30 H         140.4234  139.9962  165.4564 H       1  UNL1        0.1236
@<TRIPOS>BOND
     1    15    16    1
     2    16    14    1
     3    14    13    1
     4    13    12    1
     5    12     1    1
     6     1    19    1
     7    20    19    1
     8    20    21    1
     9    21    22    1
    10    22    23   ar
    11    23    24   ar
    12    24    25   ar
    13    25    26   ar
    14    26    27   ar
    15    27    28    1
    16    28    29    1
    17     2     1    1
    18     2     3    1
    19     3     4    1
    20     4     5    1
    21     5     6    1
    22     6     7   ar
    23     7     8   ar
    24     8     9   ar
    25     9    10   ar
    26    10    11   ar
    27    29    20    1
    28    11     2    1
    29    27    22   ar
    30    11     6   ar
    31    15    17    1
    32    15    18    1
    33    29    30    1
@<TRIPOS>MOLECULE
*****
 30 33 0 0 0
SMALL
GASTEIGER

@<TRIPOS>ATOM
      1 N         138.6270  140.2247  163.9913 N.3     1  UNL1       -0.2679
      2 C         138.8399  141.6975  164.1799 C.3     1  UNL1        0.0978
      3 C         137.6686  142.5970  164.4423 C.3     1  UNL1        0.0224
      4 C         137.8815  144.0698  164.6309 C.3     1  UNL1        0.0065
      5 C         139.2656  144.6430  164.5571 C.3     1  UNL1        0.0277
      6 C         140.4369  143.7435  164.2948 C.ar    1  UNL1       -0.0073
      7 C         141.8211  144.3167  164.2210 C.ar    1  UNL1       -0.0015
      8 C         142.9924  143.4171  163.9586 C.ar    1  UNL1        0.0203
      9 C         142.7795  141.9444  163.7700 C.ar    1  UNL1        0.0985
     10 N         141.3954  141.3711  163.8438 N.ar    1  UNL1       -0.2471
     11 C         140.2240  142.2707  164.1062 C.ar    1  UNL1        0.0695
     12 C         138.3673  139.6739  162.6205 C.3     1  UNL1        0.0725
     13 C         139.0214  140.2997  161.4245 C.3     1  UNL1        0.0187
     14 C         138.2208  141.1691  160.5009 C.3     1  UNL1        0.0183
     15 N         138.7131  143.6567  161.0661 N.3     1  UNL1       -0.3211
     16 C         138.7453  142.5143  160.0945 C.3     1  UNL1        0.0652
     17 H         139.1060  144.4887  160.6258 H       1  UNL1        0.1189
     18 H         139.2627  143.4170  161.8912 H       1  UNL1        0.1189
     19 C         138.6738  139.3027  165.1736 C.3     1  UNL1        0.0886
     20 C         139.7385  139.4735  166.2163 C.3     1  UNL1        0.0749
     21 C         139.3732  139.9543  167.5894 C.3     1  UNL1        0.0447
     22 C         140.4379  140.1252  168.6322 C.ar    1  UNL1       -0.0058
     23 C         140.0726  140.6059  170.0052 C.ar    1  UNL1       -0.0014
     24 C         141.1373  140.7768  171.0479 C.ar    1  UNL1        0.0203
     25 C         142.5672  140.4669  170.7175 C.ar    1  UNL1        0.0985
     26 N         142.9325  139.9861  169.3444 N.ar    1  UNL1       -0.2471
     27 C         141.8679  139.8153  168.3018 C.ar    1  UNL1        0.0710
     28 C         142.2331  139.3345  166.9286 C.3     1  UNL1        0.1148
     29 N         141.1684  139.1636  165.8859 N.3     1  UNL1       -0.2921
     30 H         141.1979  138.1873  165.5923 H       1  UNL1        0.1236
@<TRIPOS>BOND
     1    15    16    1
     2    16    14    1
     3    14    13    1
     4    13    12    1
     5    12     1    1
     6     1    19    1
     7    20    19    1
     8    20    21    1
     9    21    22    1
    10    22    23   ar
    11    23    24   ar
    12    24    25   ar
    13    25    26   ar
    14    26    27   ar
    15    27    28    1
    16    28    29    1
    17     2     1    1
    18     2     3    1
    19     3     4    1
    20     4     5    1
    21     5     6    1
    22     6     7   ar
    23     7     8   ar
    24     8     9   ar
    25     9    10   ar
    26    10    11   ar
    27    29    20    1
    28    11     2    1
    29    27    22   ar
    30    11     6   ar
    31    15    17    1
    32    15    18    1
    33    29    30    1
@<TRIPOS>MOLECULE
*****
 30 33 0 0 0
SMALL
GASTEIGER

@<TRIPOS>ATOM
      1 N         141.1500  142.2171  167.5772 N.3     1  UNL1       -0.2679
      2 C         140.1123  141.5671  166.7107 C.3     1  UNL1        0.0978
      3 C         139.7974  140.1107  166.8821 C.3     1  UNL1        0.0224
      4 C         138.7597  139.4607  166.0156 C.3     1  UNL1        0.0065
      5 C         138.0370  140.2672  164.9778 C.3     1  UNL1        0.0277
      6 C         138.3519  141.7236  164.8064 C.ar    1  UNL1       -0.0073
      7 C         137.6291  142.5302  163.7686 C.ar    1  UNL1       -0.0015
      8 C         137.9440  143.9867  163.5972 C.ar    1  UNL1        0.0203
      9 C         138.9817  144.6367  164.4637 C.ar    1  UNL1        0.0985
     10 N         139.7044  143.8302  165.5015 N.ar    1  UNL1       -0.2471
     11 C         139.3895  142.3736  165.6729 C.ar    1  UNL1        0.0695
     12 C         140.7432  142.9058  168.8461 C.3     1  UNL1        0.0725
     13 C         141.5536  142.7183  170.0943 C.3     1  UNL1        0.0187
     14 C         141.1733  141.6562  171.0829 C.3     1  UNL1        0.0183
     15 N         139.3429  139.8430  170.7483 N.3     1  UNL1       -0.3211
     16 C         140.7656  140.2952  170.6019 C.3     1  UNL1        0.0652
     17 H         139.2452  138.9004  170.3712 H       1  UNL1        0.1189
     18 H         138.7298  140.4787  170.2379 H       1  UNL1        0.1189
     19 C         142.5944  142.1784  167.1747 C.3     1  UNL1        0.0886
     20 C         142.9696  141.8694  165.7556 C.3     1  UNL1        0.0749
     21 C         143.0415  140.4447  165.2921 C.3     1  UNL1        0.0447
     22 C         143.4167  140.1357  163.8730 C.ar    1  UNL1       -0.0058
     23 C         143.4886  138.7110  163.4094 C.ar    1  UNL1       -0.0014
     24 C         143.8638  138.4020  161.9904 C.ar    1  UNL1        0.0203
     25 C         144.1671  139.5178  161.0349 C.ar    1  UNL1        0.0985
     26 N         144.0952  140.9426  161.4984 N.ar    1  UNL1       -0.2471
     27 C         143.7200  141.2515  162.9174 C.ar    1  UNL1        0.0710
     28 C         143.6481  142.6763  163.3810 C.3     1  UNL1        0.1148
     29 N         143.2729  142.9852  164.8001 N.3     1  UNL1       -0.2921
     30 H         142.4417  143.5753  164.7631 H       1  UNL1        0.1236
@<TRIPOS>BOND
     1    15    16    1
     2    16    14    1
     3    14    13    1
     4    13    12    1
     5    12     1    1
     6     1    19    1
     7    20    19    1
     8    20    21    1
     9    21    22    1
    10    22    23   ar
    11    23    24   ar
    12    24    25   ar
    13    25    26   ar
    14    26    27   ar
    15    27    28    1
    16    28    29    1
    17     2     1    1
    18     2     3    1
    19     3     4    1
    20     4     5    1
    21     5     6    1
    22     6     7   ar
    23     7     8   ar
    24     8     9   ar
    25     9    10   ar
    26    10    11   ar
    27    29    20    1
    28    11     2    1
    29    27    22   ar
    30    11     6   ar
    31    15    17    1
    32    15    18    1
    33    29    30    1
@<TRIPOS>MOLECULE
*****
 30 33 0 0 0
SMALL
GASTEIGER

@<TRIPOS>ATOM
      1 N         142.6215  140.1136  166.7046 N.3     1  UNL1       -0.2679
      2 C         142.7336  139.5198  165.3318 C.3     1  UNL1        0.0978
      3 C         144.0440  139.5575  164.6029 C.3     1  UNL1        0.0224
      4 C         144.1561  138.9636  163.2301 C.3     1  UNL1        0.0065
      5 C         142.9577  138.3320  162.5860 C.3     1  UNL1        0.0277
      6 C         141.6472  138.2943  163.3148 C.ar    1  UNL1       -0.0073
      7 C         140.4487  137.6627  162.6708 C.ar    1  UNL1       -0.0015
      8 C         139.1383  137.6250  163.3996 C.ar    1  UNL1        0.0203
      9 C         139.0262  138.2188  164.7725 C.ar    1  UNL1        0.0985
     10 N         140.2246  138.8504  165.4165 N.ar    1  UNL1       -0.2471
     11 C         141.5352  138.8882  164.6877 C.ar    1  UNL1        0.0695
     12 C         142.7387  139.2342  167.9141 C.3     1  UNL1        0.0725
     13 C         142.5521  139.8148  169.2845 C.3     1  UNL1        0.0187
     14 C         141.2420  139.6513  169.9964 C.3     1  UNL1        0.0183
     15 N         138.6696  139.8266  169.6770 N.3     1  UNL1       -0.3211
     16 C         140.0392  140.4228  169.5403 C.3     1  UNL1        0.0652
     17 H         137.9757  140.4833  169.3197 H       1  UNL1        0.1189
     18 H         138.4797  139.6328  170.6602 H       1  UNL1        0.1189
     19 C         142.3923  141.5870  166.8680 C.3     1  UNL1        0.0886
     20 C         141.4319  142.3014  165.9640 C.3     1  UNL1        0.0749
     21 C         141.9351  143.3392  165.0051 C.3     1  UNL1        0.0447
     22 C         140.9747  144.0537  164.1011 C.ar    1  UNL1       -0.0058
     23 C         141.4779  145.0915  163.1421 C.ar    1  UNL1       -0.0014
     24 C         140.5175  145.8059  162.2382 C.ar    1  UNL1        0.0203
     25 C         139.0538  145.4825  162.2932 C.ar    1  UNL1        0.0985
     26 N         138.5506  144.4447  163.2521 N.ar    1  UNL1       -0.2471
     27 C         139.5110  143.7303  164.1561 C.ar    1  UNL1        0.0710
     28 C         139.0078  142.6924  165.1151 C.3     1  UNL1        0.1148
     29 N         139.9682  141.9780  166.0190 N.3     1  UNL1       -0.2921
     30 H         139.8788  140.9825  165.8159 H       1  UNL1        0.1236
@<TRIPOS>BOND
     1    15    16    1
     2    16    14    1
     3    14    13    1
     4    13    12    1
     5    12     1    1
     6     1    19    1
     7    20    19    1
     8    20    21    1
     9    21    22    1
    10    22    23   ar
    11    23    24   ar
    12    24    25   ar
    13    25    26   ar
    14    26    27   ar
    15    27    28    1
    16    28    29    1
    17     2     1    1
    18     2     3    1
    19     3     4    1
    20     4     5    1
    21     5     6    1
    22     6     7   ar
    23     7     8   ar
    24     8     9   ar
    25     9    10   ar
    26    10    11   ar
    27    29    20    1
    28    11     2    1
    29    27    22   ar
    30    11     6   ar
    31    15    17    1
    32    15    18    1
    33    29    30    1
@<TRIPOS>MOLECULE
*****
 30 33 0 0 0
SMALL
GASTEIGER

@<TRIPOS>ATOM
      1 N         141.0553  142.0560  166.9378 N.3     1  UNL1       -0.2679
      2 C         141.4753  140.9190  166.0543 C.3     1  UNL1        0.0978
      3 C         142.8322  140.9275  165.4151 C.3     1  UNL1        0.0224
      4 C         143.2522  139.7905  164.5315 C.3     1  UNL1        0.0065
      5 C         142.3153  138.6449  164.2871 C.3     1  UNL1        0.0277
      6 C         140.9583  138.6364  164.9263 C.ar    1  UNL1       -0.0073
      7 C         140.0213  137.4908  164.6819 C.ar    1  UNL1       -0.0015
      8 C         138.6644  137.4822  165.3211 C.ar    1  UNL1        0.0203
      9 C         138.2444  138.6193  166.2046 C.ar    1  UNL1        0.0985
     10 N         139.1813  139.7648  166.4491 N.ar    1  UNL1       -0.2471
     11 C         140.5383  139.7734  165.8099 C.ar    1  UNL1        0.0695
     12 C         141.4874  142.0892  168.3738 C.3     1  UNL1        0.0725
     13 C         142.9277  142.3275  168.7184 C.3     1  UNL1        0.0187
     14 C         143.5171  141.7059  169.9497 C.3     1  UNL1        0.0183
     15 N         143.8312  139.5161  171.3122 N.3     1  UNL1       -0.3211
     16 C         142.9691  140.4109  170.4719 C.3     1  UNL1        0.0652
     17 H         143.3018  138.6858  171.5782 H       1  UNL1        0.1189
     18 H         144.1237  140.0162  172.1516 H       1  UNL1        0.1189
     19 C         140.2031  143.1600  166.3854 C.3     1  UNL1        0.0886
     20 C         139.8962  143.2078  164.9179 C.3     1  UNL1        0.0749
     21 C         140.8130  143.9398  163.9834 C.3     1  UNL1        0.0447
     22 C         140.5061  143.9876  162.5158 C.ar    1  UNL1       -0.0058
     23 C         141.4229  144.7197  161.5813 C.ar    1  UNL1       -0.0014
     24 C         141.1159  144.7675  160.1138 C.ar    1  UNL1        0.0203
     25 C         139.8921  144.0832  159.5810 C.ar    1  UNL1        0.0985
     26 N         138.9752  143.3511  160.5155 N.ar    1  UNL1       -0.2471
     27 C         139.2822  143.3034  161.9829 C.ar    1  UNL1        0.0710
     28 C         138.3653  142.5713  162.9176 C.3     1  UNL1        0.1148
     29 N         138.6723  142.5235  164.3850 N.3     1  UNL1       -0.2921
     30 H         138.7524  141.5384  164.6372 H       1  UNL1        0.1236
@<TRIPOS>BOND
     1    15    16    1
     2    16    14    1
     3    14    13    1
     4    13    12    1
     5    12     1    1
     6     1    19    1
     7    20    19    1
     8    20    21    1
     9    21    22    1
    10    22    23   ar
    11    23    24   ar
    12    24    25   ar
    13    25    26   ar
    14    26    27   ar
    15    27    28    1
    16    28    29    1
    17     2     1    1
    18     2     3    1
    19     3     4    1
    20     4     5    1
    21     5     6    1
    22     6     7   ar
    23     7     8   ar
    24     8     9   ar
    25     9    10   ar
    26    10    11   ar
    27    29    20    1
    28    11     2    1
    29    27    22   ar
    30    11     6   ar
    31    15    17    1
    32    15    18    1
    33    29    30    1
