@<TRIPOS>MOLECULE
*****
 27 26 0 0 0
SMALL
GASTEIGER

@<TRIPOS>ATOM
      1 C         144.9867  140.2555  163.4702 C.3     1  UNL1        0.0026
      2 C         145.7669  141.5266  163.6294 C.3     1  UNL1        0.0325
      3 C         145.0545  142.8105  163.9367 C.3     1  UNL1        0.1491
      4 O         144.4587  143.6222  162.8250 O.3     1  UNL1       -0.3141
      5 P         143.2518  144.4749  163.0825 P.3     1  UNL1        0.2142
      6 O         142.9698  144.5205  161.6100 O.2     1  UNL1       -0.5172
      7 O         143.5337  144.4292  164.5551 O.co2   1  UNL1       -0.4373
      8 O         142.0448  145.3275  163.3402 O.3     1  UNL1       -0.3077
      9 C         140.8449  144.7419  164.0236 C.3     1  UNL1        0.2097
     10 C         139.4746  144.9662  163.4561 C.3     1  UNL1        0.1423
     11 N         138.5956  143.7945  163.1330 N.4     1  UNL1        0.3125
     12 C         139.2439  143.6799  161.7851 C.3     1  UNL1        0.1711
     13 C         137.9473  143.9091  164.4808 C.3     1  UNL1        0.1711
     14 C         137.7166  142.6228  162.8098 C.3     1  UNL1        0.1711
     15 C         144.6567  139.4224  164.6731 C.3     1  UNL1        0.0001
     16 C         143.3095  139.5423  165.3219 C.3     1  UNL1        0.0000
     17 C         142.4433  138.3282  165.4815 C.3     1  UNL1        0.0000
     18 C         141.7191  137.7624  164.2960 C.3     1  UNL1        0.0000
     19 C         140.4353  137.0111  164.4897 C.3     1  UNL1        0.0000
     20 C         139.1265  137.7433  164.4625 C.3     1  UNL1        0.0000
     21 C         138.5701  138.3322  165.7250 C.3     1  UNL1        0.0000
     22 C         138.3648  139.8140  165.8345 C.3     1  UNL1        0.0000
     23 C         139.5394  140.7425  165.7455 C.3     1  UNL1        0.0000
     24 C         140.2104  141.2253  166.9973 C.3     1  UNL1        0.0000
     25 C         140.2850  140.3325  168.2004 C.3     1  UNL1        0.0000
     26 C         142.7186  140.8130  168.9728 C.3     1  UNL1        0.0000
     27 C         141.6153  139.8381  168.6861 C.3     1  UNL1        0.0000
@<TRIPOS>UNITY_ATOM_ATTR
7 1
charge -1
11 1
charge 1
@<TRIPOS>BOND
     1    26    27    1
     2    27    25    1
     3    25    24    1
     4    24    23    1
     5    23    22    1
     6    22    21    1
     7    21    20    1
     8    20    19    1
     9    19    18    1
    10    18    17    1
    11    17    16    1
    12    16    15    1
    13    15     1    1
    14     1     2    1
    15     2     3    1
    16     3     4    1
    17     4     5    1
    18     5     6    2
    19     5     7    1
    20     5     8    1
    21     8     9    1
    22     9    10    1
    23    10    11    1
    24    11    12    1
    25    11    13    1
    26    11    14    1
@<TRIPOS>MOLECULE
*****
 27 26 0 0 0
SMALL
GASTEIGER

@<TRIPOS>ATOM
      1 C         139.2269  140.5860  165.6841 C.3     1  UNL1        0.0026
      2 C         138.1628  141.2702  164.8782 C.3     1  UNL1        0.0325
      3 C         138.0155  140.9643  163.4170 C.3     1  UNL1        0.1491
      4 O         137.3104  141.9336  162.5153 O.3     1  UNL1       -0.3141
      5 P         138.0997  142.7831  161.5638 P.3     1  UNL1        0.2142
      6 O         137.7835  143.9974  162.3857 O.2     1  UNL1       -0.5172
      7 O         138.4158  141.5689  160.7419 O.co2   1  UNL1       -0.4373
      8 O         138.8890  143.6326  160.6123 O.3     1  UNL1       -0.3077
      9 C         140.3855  143.5338  160.5831 C.3     1  UNL1        0.2097
     10 C         141.2120  144.3981  161.4885 C.3     1  UNL1        0.1423
     11 N         141.5953  143.9046  162.8522 N.4     1  UNL1        0.3125
     12 C         142.1613  142.6569  162.2415 C.3     1  UNL1        0.1711
     13 C         141.0293  145.1523  163.4628 C.3     1  UNL1        0.1711
     14 C         141.9786  143.4111  164.2158 C.3     1  UNL1        0.1711
     15 C         138.9459  139.2591  166.3245 C.3     1  UNL1        0.0001
     16 C         138.8959  138.0168  165.4851 C.3     1  UNL1        0.0000
     17 C         139.8981  137.8121  164.3880 C.3     1  UNL1        0.0000
     18 C         141.2794  137.3270  164.7148 C.3     1  UNL1        0.0000
     19 C         142.4123  138.3044  164.8195 C.3     1  UNL1        0.0000
     20 C         143.0699  138.5511  166.1449 C.3     1  UNL1        0.0000
     21 C         142.5056  139.5768  167.0828 C.3     1  UNL1        0.0000
     22 C         142.7969  141.0321  166.8659 C.3     1  UNL1        0.0000
     23 C         142.4567  142.0319  167.9311 C.3     1  UNL1        0.0000
     24 C         141.0427  142.5070  168.0898 C.3     1  UNL1        0.0000
     25 C         140.3424  142.3509  169.4071 C.3     1  UNL1        0.0000
     26 C         140.3519  139.8810  170.2129 C.3     1  UNL1        0.0000
     27 C         139.6036  141.0831  169.7181 C.3     1  UNL1        0.0000
@<TRIPOS>UNITY_ATOM_ATTR
7 1
charge -1
11 1
charge 1
@<TRIPOS>BOND
     1    26    27    1
     2    27    25    1
     3    25    24    1
     4    24    23    1
     5    23    22    1
     6    22    21    1
     7    21    20    1
     8    20    19    1
     9    19    18    1
    10    18    17    1
    11    17    16    1
    12    16    15    1
    13    15     1    1
    14     1     2    1
    15     2     3    1
    16     3     4    1
    17     4     5    1
    18     5     6    2
    19     5     7    1
    20     5     8    1
    21     8     9    1
    22     9    10    1
    23    10    11    1
    24    11    12    1
    25    11    13    1
    26    11    14    1
@<TRIPOS>MOLECULE
*****
 27 26 0 0 0
SMALL
GASTEIGER

@<TRIPOS>ATOM
      1 C         138.1158  139.3148  167.7090 C.3     1  UNL1        0.0026
      2 C         139.2289  140.0951  168.3432 C.3     1  UNL1        0.0325
      3 C         139.1797  140.4170  169.8075 C.3     1  UNL1        0.1491
      4 O         139.0413  141.8409  170.2581 O.3     1  UNL1       -0.3141
      5 P         140.2634  142.6900  170.4468 P.3     1  UNL1        0.2142
      6 O         140.0482  143.3003  169.0936 O.2     1  UNL1       -0.5172
      7 O         140.4787  142.0796  171.7999 O.co2   1  UNL1       -0.4373
      8 O         141.4856  143.5390  170.6354 O.3     1  UNL1       -0.3077
      9 C         142.8465  142.9084  170.6200 C.3     1  UNL1        0.2097
     10 C         143.3650  142.2739  169.3636 C.3     1  UNL1        0.1423
     11 N         142.9878  140.8620  169.0256 N.4     1  UNL1        0.3125
     12 C         143.1683  140.4699  170.4622 C.3     1  UNL1        0.1711
     13 C         142.8072  141.2541  167.5891 C.3     1  UNL1        0.1711
     14 C         142.6106  139.4501  168.6876 C.3     1  UNL1        0.1711
     15 C         138.1022  139.0989  166.2247 C.3     1  UNL1        0.0001
     16 C         138.5522  137.7869  165.6535 C.3     1  UNL1        0.0000
     17 C         139.3733  137.7574  164.3986 C.3     1  UNL1        0.0000
     18 C         138.7253  138.0221  163.0719 C.3     1  UNL1        0.0000
     19 C         139.3671  138.9660  162.0987 C.3     1  UNL1        0.0000
     20 C         138.5544  140.0544  161.4625 C.3     1  UNL1        0.0000
     21 C         137.8046  141.0298  162.3207 C.3     1  UNL1        0.0000
     22 C         137.8447  142.4949  162.0015 C.3     1  UNL1        0.0000
     23 C         138.4770  143.4553  162.9647 C.3     1  UNL1        0.0000
     24 C         138.1321  143.3910  164.4232 C.3     1  UNL1        0.0000
     25 C         139.1207  142.8331  165.4037 C.3     1  UNL1        0.0000
     26 C         140.9001  141.1678  164.5035 C.3     1  UNL1        0.0000
     27 C         140.5269  142.5440  164.9689 C.3     1  UNL1        0.0000
@<TRIPOS>UNITY_ATOM_ATTR
7 1
charge -1
11 1
charge 1
@<TRIPOS>BOND
     1    26    27    1
     2    27    25    1
     3    25    24    1
     4    24    23    1
     5    23    22    1
     6    22    21    1
     7    21    20    1
     8    20    19    1
     9    19    18    1
    10    18    17    1
    11    17    16    1
    12    16    15    1
    13    15     1    1
    14     1     2    1
    15     2     3    1
    16     3     4    1
    17     4     5    1
    18     5     6    2
    19     5     7    1
    20     5     8    1
    21     8     9    1
    22     9    10    1
    23    10    11    1
    24    11    12    1
    25    11    13    1
    26    11    14    1
@<TRIPOS>MOLECULE
*****
 27 26 0 0 0
SMALL
GASTEIGER

@<TRIPOS>ATOM
      1 C         139.7520  144.0366  165.3761 C.3     1  UNL1        0.0026
      2 C         138.4407  144.5626  164.8725 C.3     1  UNL1        0.0325
      3 C         138.0353  144.3266  163.4477 C.3     1  UNL1        0.1491
      4 O         139.0830  144.1763  162.3849 O.3     1  UNL1       -0.3141
      5 P         139.1734  142.9041  161.5955 P.3     1  UNL1        0.2142
      6 O         140.6514  142.8535  161.8461 O.2     1  UNL1       -0.5172
      7 O         137.6954  142.9546  161.3448 O.co2   1  UNL1       -0.4373
      8 O         139.2637  141.6318  160.8060 O.3     1  UNL1       -0.3077
      9 C         139.9992  140.4513  161.3676 C.3     1  UNL1        0.2097
     10 C         139.3599  139.6043  162.4278 C.3     1  UNL1        0.1423
     11 N         140.1620  138.5486  163.1293 N.4     1  UNL1        0.3125
     12 C         141.3896  139.4023  163.0104 C.3     1  UNL1        0.1711
     13 C         138.9344  137.6949  163.2481 C.3     1  UNL1        0.1711
     14 C         140.9641  137.4929  163.8307 C.3     1  UNL1        0.1711
     15 C         139.7845  142.8246  166.2593 C.3     1  UNL1        0.0001
     16 C         139.7423  141.4533  165.6529 C.3     1  UNL1        0.0000
     17 C         139.3925  140.2678  166.5028 C.3     1  UNL1        0.0000
     18 C         140.0644  140.0718  167.8296 C.3     1  UNL1        0.0000
     19 C         139.2996  140.3035  169.0990 C.3     1  UNL1        0.0000
     20 C         139.8944  141.1434  170.1902 C.3     1  UNL1        0.0000
     21 C         139.9501  142.6351  170.0427 C.3     1  UNL1        0.0000
     22 C         141.2340  143.3023  169.6472 C.3     1  UNL1        0.0000
     23 C         142.5355  142.5717  169.7958 C.3     1  UNL1        0.0000
     24 C         143.1343  141.8593  168.6193 C.3     1  UNL1        0.0000
     25 C         143.2244  142.5497  167.2908 C.3     1  UNL1        0.0000
     26 C         143.1846  142.3946  164.6976 C.3     1  UNL1        0.0000
     27 C         143.3764  141.7433  166.0351 C.3     1  UNL1        0.0000
@<TRIPOS>UNITY_ATOM_ATTR
7 1
charge -1
11 1
charge 1
@<TRIPOS>BOND
     1    26    27    1
     2    27    25    1
     3    25    24    1
     4    24    23    1
     5    23    22    1
     6    22    21    1
     7    21    20    1
     8    20    19    1
     9    19    18    1
    10    18    17    1
    11    17    16    1
    12    16    15    1
    13    15     1    1
    14     1     2    1
    15     2     3    1
    16     3     4    1
    17     4     5    1
    18     5     6    2
    19     5     7    1
    20     5     8    1
    21     8     9    1
    22     9    10    1
    23    10    11    1
    24    11    12    1
    25    11    13    1
    26    11    14    1
@<TRIPOS>MOLECULE
*****
 27 26 0 0 0
SMALL
GASTEIGER

@<TRIPOS>ATOM
      1 C         142.1806  139.2615  165.6996 C.3     1  UNL1        0.0026
      2 C         140.7057  138.9894  165.6834 C.3     1  UNL1        0.0325
      3 C         139.8740  139.4324  164.5163 C.3     1  UNL1        0.1491
      4 O         138.5579  140.1134  164.7486 O.3     1  UNL1       -0.3141
      5 P         137.9219  140.9113  163.6492 P.3     1  UNL1        0.2142
      6 O         137.6602  142.0306  164.6128 O.2     1  UNL1       -0.5172
      7 O         138.1836  139.7920  162.6855 O.co2   1  UNL1       -0.4373
      8 O         137.2859  141.7091  162.5496 O.3     1  UNL1       -0.3077
      9 C         137.8594  143.0393  162.1600 C.3     1  UNL1        0.2097
     10 C         139.2868  143.1379  161.7099 C.3     1  UNL1        0.1423
     11 N         140.1551  144.2547  162.2087 N.4     1  UNL1        0.3125
     12 C         138.9780  144.8514  162.9216 C.3     1  UNL1        0.1711
     13 C         141.3322  143.6579  161.4958 C.3     1  UNL1        0.1711
     14 C         141.0234  145.3715  162.7076 C.3     1  UNL1        0.1711
     15 C         142.9481  139.1592  166.9843 C.3     1  UNL1        0.0001
     16 C         142.2772  139.4821  168.2865 C.3     1  UNL1        0.0000
     17 C         142.8653  140.5198  169.1961 C.3     1  UNL1        0.0000
     18 C         142.8466  141.9654  168.7959 C.3     1  UNL1        0.0000
     19 C         141.7388  142.8599  169.2677 C.3     1  UNL1        0.0000
     20 C         140.4985  143.0184  168.4392 C.3     1  UNL1        0.0000
     21 C         140.3853  142.3193  167.1169 C.3     1  UNL1        0.0000
     22 C         140.7072  143.0546  165.8498 C.3     1  UNL1        0.0000
     23 C         141.9287  142.6886  165.0599 C.3     1  UNL1        0.0000
     24 C         143.2678  143.2399  165.4510 C.3     1  UNL1        0.0000
     25 C         144.5201  142.6446  164.8789 C.3     1  UNL1        0.0000
     26 C         145.1947  140.3122  163.9541 C.3     1  UNL1        0.0000
     27 C         144.4316  141.5955  163.8103 C.3     1  UNL1        0.0000
@<TRIPOS>UNITY_ATOM_ATTR
7 1
charge -1
11 1
charge 1
@<TRIPOS>BOND
     1    26    27    1
     2    27    25    1
     3    25    24    1
     4    24    23    1
     5    23    22    1
     6    22    21    1
     7    21    20    1
     8    20    19    1
     9    19    18    1
    10    18    17    1
    11    17    16    1
    12    16    15    1
    13    15     1    1
    14     1     2    1
    15     2     3    1
    16     3     4    1
    17     4     5    1
    18     5     6    2
    19     5     7    1
    20     5     8    1
    21     8     9    1
    22     9    10    1
    23    10    11    1
    24    11    12    1
    25    11    13    1
    26    11    14    1
@<TRIPOS>MOLECULE
*****
 27 26 0 0 0
SMALL
GASTEIGER

@<TRIPOS>ATOM
      1 C         138.2506  139.9335  165.2627 C.3     1  UNL1        0.0026
      2 C         137.9829  140.6810  163.9901 C.3     1  UNL1        0.0325
      3 C         137.6481  142.1425  164.0349 C.3     1  UNL1        0.1491
      4 O         138.7466  143.1638  164.0391 O.3     1  UNL1       -0.3141
      5 P         138.7057  144.3133  163.0763 P.3     1  UNL1        0.2142
      6 O         139.7016  145.0541  163.9184 O.2     1  UNL1       -0.5172
      7 O         137.7097  143.5724  162.2342 O.co2   1  UNL1       -0.4373
      8 O         138.6647  145.4627  162.1133 O.3     1  UNL1       -0.3077
      9 C         139.9419  146.0339  161.5726 C.3     1  UNL1        0.2097
     10 C         140.5391  145.4771  160.3143 C.3     1  UNL1        0.1423
     11 N         140.9619  144.0390  160.2573 N.4     1  UNL1        0.3125
     12 C         142.0579  144.3222  161.2414 C.3     1  UNL1        0.1711
     13 C         139.8658  143.7558  159.2733 C.3     1  UNL1        0.1711
     14 C         141.3846  142.6009  160.2003 C.3     1  UNL1        0.1711
     15 C         139.6415  139.4731  165.5837 C.3     1  UNL1        0.0001
     16 C         140.6799  139.4131  164.5028 C.3     1  UNL1        0.0000
     17 C         141.6218  138.2479  164.4315 C.3     1  UNL1        0.0000
     18 C         142.7331  138.1196  165.4309 C.3     1  UNL1        0.0000
     19 C         143.7596  139.2063  165.5548 C.3     1  UNL1        0.0000
     20 C         144.8449  139.3334  164.5272 C.3     1  UNL1        0.0000
     21 C         144.6694  140.2613  163.3618 C.3     1  UNL1        0.0000
     22 C         145.3479  141.5990  163.3593 C.3     1  UNL1        0.0000
     23 C         144.5876  142.8263  163.7664 C.3     1  UNL1        0.0000
     24 C         144.5668  143.2532  165.2042 C.3     1  UNL1        0.0000
     25 C         143.4939  142.7462  166.1217 C.3     1  UNL1        0.0000
     26 C         140.9410  142.6849  166.6003 C.3     1  UNL1        0.0000
     27 C         142.0825  142.6228  165.6291 C.3     1  UNL1        0.0000
@<TRIPOS>UNITY_ATOM_ATTR
7 1
charge -1
11 1
charge 1
@<TRIPOS>BOND
     1    26    27    1
     2    27    25    1
     3    25    24    1
     4    24    23    1
     5    23    22    1
     6    22    21    1
     7    21    20    1
     8    20    19    1
     9    19    18    1
    10    18    17    1
    11    17    16    1
    12    16    15    1
    13    15     1    1
    14     1     2    1
    15     2     3    1
    16     3     4    1
    17     4     5    1
    18     5     6    2
    19     5     7    1
    20     5     8    1
    21     8     9    1
    22     9    10    1
    23    10    11    1
    24    11    12    1
    25    11    13    1
    26    11    14    1
@<TRIPOS>MOLECULE
*****
 27 26 0 0 0
SMALL
GASTEIGER

@<TRIPOS>ATOM
      1 C         144.0574  139.3137  163.6608 C.3     1  UNL1        0.0026
      2 C         145.2212  140.1240  164.1495 C.3     1  UNL1        0.0325
      3 C         145.5311  141.4486  163.5174 C.3     1  UNL1        0.1491
      4 O         144.8589  142.6932  164.0162 O.3     1  UNL1       -0.3141
      5 P         144.1889  143.6230  163.0485 P.3     1  UNL1        0.2142
      6 O         144.5061  142.6817  161.9245 O.2     1  UNL1       -0.5172
      7 O         143.8717  144.5643  164.1724 O.co2   1  UNL1       -0.4373
      8 O         143.5189  144.5529  162.0807 O.3     1  UNL1       -0.3077
      9 C         142.1109  144.2866  161.6372 C.3     1  UNL1        0.2097
     10 C         141.1696  143.5414  162.5364 C.3     1  UNL1        0.1423
     11 N         139.7790  144.0575  162.7595 N.4     1  UNL1        0.3125
     12 C         139.3381  143.4262  161.4722 C.3     1  UNL1        0.1711
     13 C         140.2198  144.6888  164.0468 C.3     1  UNL1        0.1711
     14 C         138.3883  144.5736  162.9826 C.3     1  UNL1        0.1711
     15 C         143.0205  138.8297  164.6306 C.3     1  UNL1        0.0001
     16 C         143.3617  138.6876  166.0844 C.3     1  UNL1        0.0000
     17 C         142.8053  139.6581  167.0837 C.3     1  UNL1        0.0000
     18 C         142.7939  141.1265  166.7771 C.3     1  UNL1        0.0000
     19 C         142.4996  142.1173  167.8640 C.3     1  UNL1        0.0000
     20 C         141.7884  141.6759  169.1088 C.3     1  UNL1        0.0000
     21 C         140.2921  141.7510  169.1843 C.3     1  UNL1        0.0000
     22 C         139.4752  140.4937  169.1442 C.3     1  UNL1        0.0000
     23 C         139.2838  139.7648  167.8473 C.3     1  UNL1        0.0000
     24 C         139.1964  140.5322  166.5614 C.3     1  UNL1        0.0000
     25 C         138.7987  139.8323  165.2957 C.3     1  UNL1        0.0000
     26 C         139.7704  137.4586  164.8815 C.3     1  UNL1        0.0000
     27 C         138.6273  138.3421  165.2848 C.3     1  UNL1        0.0000
@<TRIPOS>UNITY_ATOM_ATTR
7 1
charge -1
11 1
charge 1
@<TRIPOS>BOND
     1    26    27    1
     2    27    25    1
     3    25    24    1
     4    24    23    1
     5    23    22    1
     6    22    21    1
     7    21    20    1
     8    20    19    1
     9    19    18    1
    10    18    17    1
    11    17    16    1
    12    16    15    1
    13    15     1    1
    14     1     2    1
    15     2     3    1
    16     3     4    1
    17     4     5    1
    18     5     6    2
    19     5     7    1
    20     5     8    1
    21     8     9    1
    22     9    10    1
    23    10    11    1
    24    11    12    1
    25    11    13    1
    26    11    14    1
@<TRIPOS>MOLECULE
*****
 27 26 0 0 0
SMALL
GASTEIGER

@<TRIPOS>ATOM
      1 C         141.1778  141.7263  164.7266 C.3     1  UNL1        0.0026
      2 C         140.9130  143.1659  165.0543 C.3     1  UNL1        0.0325
      3 C         139.5449  143.5955  165.4947 C.3     1  UNL1        0.1491
      4 O         138.7156  144.4792  164.6108 O.3     1  UNL1       -0.3141
      5 P         138.3441  144.0235  163.2309 P.3     1  UNL1        0.2142
      6 O         139.1062  145.1752  162.6454 O.2     1  UNL1       -0.5172
      7 O         137.5821  142.8718  163.8163 O.co2   1  UNL1       -0.4373
      8 O         137.9727  143.5677  161.8509 O.3     1  UNL1       -0.3077
      9 C         139.0284  143.0373  160.9267 C.3     1  UNL1        0.2097
     10 C         139.5139  141.6257  161.0741 C.3     1  UNL1        0.1423
     11 N         140.9845  141.3315  161.0458 N.4     1  UNL1        0.3125
     12 C         141.2588  142.7438  160.6214 C.3     1  UNL1        0.1711
     13 C         140.7101  139.9193  161.4703 C.3     1  UNL1        0.1711
     14 C         142.4551  141.0374  161.0176 C.3     1  UNL1        0.1711
     15 C         142.5734  141.1827  164.8098 C.3     1  UNL1        0.0001
     16 C         142.9754  140.3229  165.9713 C.3     1  UNL1        0.0000
     17 C         142.5092  138.8992  166.0474 C.3     1  UNL1        0.0000
     18 C         142.3112  138.1066  164.7893 C.3     1  UNL1        0.0000
     19 C         141.0765  137.2730  164.6146 C.3     1  UNL1        0.0000
     20 C         139.7325  137.9329  164.5256 C.3     1  UNL1        0.0000
     21 C         138.6342  137.5273  165.4634 C.3     1  UNL1        0.0000
     22 C         138.1311  138.4956  166.4927 C.3     1  UNL1        0.0000
     23 C         138.8620  139.7835  166.7312 C.3     1  UNL1        0.0000
     24 C         139.6296  139.9857  168.0041 C.3     1  UNL1        0.0000
     25 C         140.2595  141.3151  168.2970 C.3     1  UNL1        0.0000
     26 C         142.5400  142.3772  168.9459 C.3     1  UNL1        0.0000
     27 C         141.4367  141.3995  169.2228 C.3     1  UNL1        0.0000
@<TRIPOS>UNITY_ATOM_ATTR
7 1
charge -1
11 1
charge 1
@<TRIPOS>BOND
     1    26    27    1
     2    27    25    1
     3    25    24    1
     4    24    23    1
     5    23    22    1
     6    22    21    1
     7    21    20    1
     8    20    19    1
     9    19    18    1
    10    18    17    1
    11    17    16    1
    12    16    15    1
    13    15     1    1
    14     1     2    1
    15     2     3    1
    16     3     4    1
    17     4     5    1
    18     5     6    2
    19     5     7    1
    20     5     8    1
    21     8     9    1
    22     9    10    1
    23    10    11    1
    24    11    12    1
    25    11    13    1
    26    11    14    1
@<TRIPOS>MOLECULE
*****
 27 26 0 0 0
SMALL
GASTEIGER

@<TRIPOS>ATOM
      1 C         138.0802  141.0898  164.2151 C.3     1  UNL1        0.0026
      2 C         137.9211  142.5785  164.1233 C.3     1  UNL1        0.0325
      3 C         137.6716  143.2255  162.7932 C.3     1  UNL1        0.1491
      4 O         138.1145  144.6381  162.5514 O.3     1  UNL1       -0.3141
      5 P         139.5509  144.9295  162.2326 P.3     1  UNL1        0.2142
      6 O         139.7741  145.3766  163.6469 O.2     1  UNL1       -0.5172
      7 O         139.3278  144.4824  160.8183 O.co2   1  UNL1       -0.4373
      8 O         140.9874  145.2210  161.9138 O.3     1  UNL1       -0.3077
      9 C         141.8650  144.1416  161.3525 C.3     1  UNL1        0.2097
     10 C         142.3799  143.0530  162.2468 C.3     1  UNL1        0.1423
     11 N         143.2020  143.3990  163.4528 N.4     1  UNL1        0.3125
     12 C         144.2650  143.9728  162.5635 C.3     1  UNL1        0.1711
     13 C         142.1390  142.8252  164.3420 C.3     1  UNL1        0.1711
     14 C         144.0241  143.7451  164.6588 C.3     1  UNL1        0.1711
     15 C         138.9661  140.4938  165.2686 C.3     1  UNL1        0.0001
     16 C         138.5083  139.2928  166.0420 C.3     1  UNL1        0.0000
     17 C         138.8169  137.9141  165.5383 C.3     1  UNL1        0.0000
     18 C         139.4234  137.7306  164.1787 C.3     1  UNL1        0.0000
     19 C         140.7938  137.1359  164.0428 C.3     1  UNL1        0.0000
     20 C         141.8994  137.9346  163.4187 C.3     1  UNL1        0.0000
     21 C         142.4317  139.1513  164.1162 C.3     1  UNL1        0.0000
     22 C         143.5584  139.0203  165.0978 C.3     1  UNL1        0.0000
     23 C         143.2668  138.7248  166.5392 C.3     1  UNL1        0.0000
     24 C         142.1210  139.4057  167.2275 C.3     1  UNL1        0.0000
     25 C         142.2425  139.8064  168.6678 C.3     1  UNL1        0.0000
     26 C         143.0347  142.1822  167.9762 C.3     1  UNL1        0.0000
     27 C         142.8470  141.1308  169.0294 C.3     1  UNL1        0.0000
@<TRIPOS>UNITY_ATOM_ATTR
7 1
charge -1
11 1
charge 1
@<TRIPOS>BOND
     1    26    27    1
     2    27    25    1
     3    25    24    1
     4    24    23    1
     5    23    22    1
     6    22    21    1
     7    21    20    1
     8    20    19    1
     9    19    18    1
    10    18    17    1
    11    17    16    1
    12    16    15    1
    13    15     1    1
    14     1     2    1
    15     2     3    1
    16     3     4    1
    17     4     5    1
    18     5     6    2
    19     5     7    1
    20     5     8    1
    21     8     9    1
    22     9    10    1
    23    10    11    1
    24    11    12    1
    25    11    13    1
    26    11    14    1
