@<TRIPOS>MOLECULE
*****
 33 37 0 0 0
SMALL
GASTEIGER

@<TRIPOS>ATOM
      1 C         140.6678  138.9577  160.5315 C.3     1  UNL1        0.0747
      2 C         139.6011  138.5442  159.5614 C.3     1  UNL1        0.0369
      3 C         139.9731  138.1349  158.1671 C.3     1  UNL1        0.0741
      4 N         141.4118  138.1390  157.7429 N.3     1  UNL1       -0.2688
      5 C         142.4786  138.5525  158.7130 C.3     1  UNL1        0.0741
      6 C         142.1066  138.9618  160.1073 C.3     1  UNL1        0.0369
      7 O         140.9020  136.9913  162.7851 O.2     1  UNL1       -0.2668
      8 C         140.4130  138.3839  163.0526 C.2     1  UNL1        0.2806
      9 N         140.2958  139.3670  161.9258 N.am    1  UNL1       -0.2999
     10 H         139.9748  140.2810  162.1014 H       1  UNL1        0.1498
     11 C         140.0410  138.7932  164.4468 C.ar    1  UNL1        0.2014
     12 C         138.7702  138.2876  165.0631 C.ar    1  UNL1        0.0843
     13 C         138.3983  138.6970  166.4574 C.ar    1  UNL1        0.2018
     14 O         137.1275  138.1914  167.0737 O.2     1  UNL1       -0.2864
     15 C         139.2970  139.6119  167.2355 C.ar    1  UNL1        0.0737
     16 C         138.9249  140.0212  168.6298 C.ar    1  UNL1        0.0085
     17 C         139.8236  140.9361  169.4078 C.ar    1  UNL1        0.0299
     18 C         141.0943  141.4416  168.7915 C.ar    1  UNL1        0.1432
     19 F         141.9930  142.3565  169.5696 F       1  UNL1       -0.2041
     20 C         141.4663  141.0323  167.3973 C.ar    1  UNL1        0.0672
     21 C         140.5676  140.1174  166.6192 C.ar    1  UNL1        0.1508
     22 O         140.9397  139.7081  165.2249 O.2     1  UNL1       -0.4486
     23 C         141.7838  137.7297  156.3487 C.3     1  UNL1        0.0992
     24 C         142.3417  136.3610  156.0924 C.ar    1  UNL1       -0.0029
     25 C         142.1352  135.7044  154.7597 C.ar    1  UNL1        0.0004
     26 C         142.6930  134.3358  154.5034 C.ar    1  UNL1        0.0398
     27 C         143.4574  133.6237  155.5799 C.ar    1  UNL1        0.1724
     28 C         143.6639  134.2804  156.9127 C.ar    1  UNL1        0.1721
     29 C         143.1060  135.6490  157.1689 C.ar    1  UNL1        0.0371
     30 O         144.4282  133.5684  157.9891 O.3     1  UNL1       -0.4684
     31 C         144.9861  132.1998  157.7329 C.3     1  UNL1        0.2526
     32 C         144.7796  131.5432  156.4001 C.3     1  UNL1        0.2526
     33 O         144.0152  132.2551  155.3237 O.3     1  UNL1       -0.4684
@<TRIPOS>BOND
     1     7     8    2
     2     8     9   am
     3     9     1    1
     4     1     2    1
     5     2     3    1
     6     3     4    1
     7     4    23    1
     8    23    24    1
     9    24    25   ar
    10    25    26   ar
    11    26    27   ar
    12    27    28   ar
    13    28    29   ar
    14    28    30    1
    15    30    31    1
    16    31    32    1
    17    32    33    1
    18     4     5    1
    19     5     6    1
    20     8    11    1
    21    11    12   ar
    22    12    13   ar
    23    13    14    2
    24    13    15   ar
    25    15    16   ar
    26    16    17   ar
    27    17    18   ar
    28    18    19    1
    29    18    20   ar
    30    20    21   ar
    31    21    22   ar
    32     6     1    1
    33    22    11   ar
    34    29    24   ar
    35    21    15   ar
    36    33    27    1
    37     9    10    1
@<TRIPOS>MOLECULE
*****
 33 37 0 0 0
SMALL
GASTEIGER

@<TRIPOS>ATOM
      1 C         142.8553  138.5076  160.8656 C.3     1  UNL1        0.0747
      2 C         144.1649  139.1302  161.2497 C.3     1  UNL1        0.0369
      3 C         144.2012  140.2358  162.2628 C.3     1  UNL1        0.0741
      4 N         142.9280  140.7189  162.8917 N.3     1  UNL1       -0.2688
      5 C         141.6185  140.0963  162.5076 C.3     1  UNL1        0.0741
      6 C         141.5821  138.9908  161.4946 C.3     1  UNL1        0.0369
      7 O         142.3168  139.1330  157.9814 O.2     1  UNL1       -0.2668
      8 C         142.5497  137.7147  158.4104 C.2     1  UNL1        0.2806
      9 N         142.8190  137.4020  159.8526 N.am    1  UNL1       -0.2999
     10 H         142.9718  136.4711  160.1342 H       1  UNL1        0.1498
     11 C         142.5133  136.6092  157.3974 C.ar    1  UNL1        0.2014
     12 C         141.5885  136.7009  156.2199 C.ar    1  UNL1        0.0843
     13 C         141.5522  135.5953  155.2069 C.ar    1  UNL1        0.2018
     14 O         140.6274  135.6871  154.0294 O.2     1  UNL1       -0.2864
     15 C         142.4406  134.3979  155.3712 C.ar    1  UNL1        0.0737
     16 C         142.4041  133.2923  154.3581 C.ar    1  UNL1        0.0085
     17 C         143.2925  132.0949  154.5225 C.ar    1  UNL1        0.0299
     18 C         144.2173  132.0031  155.7000 C.ar    1  UNL1        0.1432
     19 F         145.1057  130.8057  155.8644 F       1  UNL1       -0.2041
     20 C         144.2537  133.1087  156.7130 C.ar    1  UNL1        0.0672
     21 C         143.3653  134.3061  156.5487 C.ar    1  UNL1        0.1508
     22 O         143.4017  135.4118  157.5618 O.2     1  UNL1       -0.4486
     23 C         142.9644  141.8245  163.9048 C.3     1  UNL1        0.0992
     24 C         142.3916  141.6064  165.2739 C.ar    1  UNL1       -0.0029
     25 C         141.2366  142.4394  165.7451 C.ar    1  UNL1        0.0004
     26 C         140.6638  142.2214  167.1141 C.ar    1  UNL1        0.0398
     27 C         141.2460  141.1703  168.0121 C.ar    1  UNL1        0.1724
     28 C         142.4010  140.3372  167.5409 C.ar    1  UNL1        0.1721
     29 C         142.9738  140.5553  166.1718 C.ar    1  UNL1        0.0371
     30 O         142.9832  139.2861  168.4388 O.3     1  UNL1       -0.4684
     31 C         142.4104  139.0681  169.8078 C.3     1  UNL1        0.2526
     32 C         141.2554  139.9011  170.2790 C.3     1  UNL1        0.2526
     33 O         140.6732  140.9522  169.3811 O.3     1  UNL1       -0.4684
@<TRIPOS>BOND
     1     7     8    2
     2     8     9   am
     3     9     1    1
     4     1     2    1
     5     2     3    1
     6     3     4    1
     7     4    23    1
     8    23    24    1
     9    24    25   ar
    10    25    26   ar
    11    26    27   ar
    12    27    28   ar
    13    28    29   ar
    14    28    30    1
    15    30    31    1
    16    31    32    1
    17    32    33    1
    18     4     5    1
    19     5     6    1
    20     8    11    1
    21    11    12   ar
    22    12    13   ar
    23    13    14    2
    24    13    15   ar
    25    15    16   ar
    26    16    17   ar
    27    17    18   ar
    28    18    19    1
    29    18    20   ar
    30    20    21   ar
    31    21    22   ar
    32     6     1    1
    33    22    11   ar
    34    29    24   ar
    35    21    15   ar
    36    33    27    1
    37     9    10    1
@<TRIPOS>MOLECULE
*****
 33 37 0 0 0
SMALL
GASTEIGER

@<TRIPOS>ATOM
      1 C         141.6368  139.9213  161.2462 C.3     1  UNL1        0.0747
      2 C         142.8194  140.4328  160.4782 C.3     1  UNL1        0.0369
      3 C         143.0638  139.9607  159.0755 C.3     1  UNL1        0.0741
      4 N         142.1257  138.9772  158.4409 N.3     1  UNL1       -0.2688
      5 C         140.9432  138.4658  159.2090 C.3     1  UNL1        0.0741
      6 C         140.6987  138.9378  160.6116 C.3     1  UNL1        0.0369
      7 O         143.3193  138.8711  163.4970 O.2     1  UNL1       -0.2668
      8 C         142.2336  139.8682  163.7743 C.2     1  UNL1        0.2806
      9 N         141.3924  140.3933  162.6489 N.am    1  UNL1       -0.2999
     10 H         140.6797  141.0478  162.8308 H       1  UNL1        0.1498
     11 C         141.9892  140.3402  165.1769 C.ar    1  UNL1        0.2014
     12 C         142.9627  141.2726  165.8349 C.ar    1  UNL1        0.0843
     13 C         142.7183  141.7446  167.2375 C.ar    1  UNL1        0.2018
     14 O         143.6918  142.6770  167.8955 O.2     1  UNL1       -0.2864
     15 C         141.5002  141.2843  167.9822 C.ar    1  UNL1        0.0737
     16 C         141.2558  141.7564  169.3849 C.ar    1  UNL1        0.0085
     17 C         140.0378  141.2960  170.1296 C.ar    1  UNL1        0.0299
     18 C         139.0642  140.3637  169.4716 C.ar    1  UNL1        0.1432
     19 F         137.8462  139.9034  170.2162 F       1  UNL1       -0.2041
     20 C         139.3087  139.8917  168.0689 C.ar    1  UNL1        0.0672
     21 C         140.5267  140.3520  167.3243 C.ar    1  UNL1        0.1508
     22 O         140.7711  139.8799  165.9216 O.2     1  UNL1       -0.4486
     23 C         142.3702  138.5052  157.0383 C.3     1  UNL1        0.0992
     24 C         142.2786  137.0440  156.7120 C.ar    1  UNL1       -0.0029
     25 C         141.2652  136.5596  155.7178 C.ar    1  UNL1        0.0004
     26 C         141.1735  135.0985  155.3915 C.ar    1  UNL1        0.0398
     27 C         142.0954  134.1215  156.0593 C.ar    1  UNL1        0.1724
     28 C         143.1088  134.6059  157.0535 C.ar    1  UNL1        0.1721
     29 C         143.2004  136.0672  157.3798 C.ar    1  UNL1        0.0371
     30 O         144.0306  133.6291  157.7213 O.3     1  UNL1       -0.4684
     31 C         143.9390  132.1679  157.3950 C.3     1  UNL1        0.2526
     32 C         142.9256  131.6836  156.4008 C.3     1  UNL1        0.2526
     33 O         142.0037  132.6604  155.7330 O.3     1  UNL1       -0.4684
@<TRIPOS>BOND
     1     7     8    2
     2     8     9   am
     3     9     1    1
     4     1     2    1
     5     2     3    1
     6     3     4    1
     7     4    23    1
     8    23    24    1
     9    24    25   ar
    10    25    26   ar
    11    26    27   ar
    12    27    28   ar
    13    28    29   ar
    14    28    30    1
    15    30    31    1
    16    31    32    1
    17    32    33    1
    18     4     5    1
    19     5     6    1
    20     8    11    1
    21    11    12   ar
    22    12    13   ar
    23    13    14    2
    24    13    15   ar
    25    15    16   ar
    26    16    17   ar
    27    17    18   ar
    28    18    19    1
    29    18    20   ar
    30    20    21   ar
    31    21    22   ar
    32     6     1    1
    33    22    11   ar
    34    29    24   ar
    35    21    15   ar
    36    33    27    1
    37     9    10    1
@<TRIPOS>MOLECULE
*****
 33 37 0 0 0
SMALL
GASTEIGER

@<TRIPOS>ATOM
      1 C         140.7530  139.0749  160.3070 C.3     1  UNL1        0.0747
      2 C         142.1383  139.3074  159.7810 C.3     1  UNL1        0.0369
      3 C         142.4834  138.9115  158.3759 C.3     1  UNL1        0.0741
      4 N         141.4431  138.2829  157.4969 N.3     1  UNL1       -0.2688
      5 C         140.0577  138.0504  158.0229 C.3     1  UNL1        0.0741
      6 C         139.7126  138.4463  159.4279 C.3     1  UNL1        0.0369
      7 O         141.0812  137.1037  162.5446 O.2     1  UNL1       -0.2668
      8 C         140.5720  138.4852  162.8308 C.2     1  UNL1        0.2806
      9 N         140.4079  139.4708  161.7120 N.am    1  UNL1       -0.2999
     10 H         140.0737  140.3776  161.8999 H       1  UNL1        0.1498
     11 C         140.2270  138.8812  164.2358 C.ar    1  UNL1        0.2014
     12 C         138.9302  138.4352  164.8437 C.ar    1  UNL1        0.0843
     13 C         138.5851  138.8312  166.2487 C.ar    1  UNL1        0.2018
     14 O         137.2883  138.3852  166.8567 O.2     1  UNL1       -0.2864
     15 C         139.5368  139.6731  167.0459 C.ar    1  UNL1        0.0737
     16 C         139.1916  140.0690  168.4510 C.ar    1  UNL1        0.0085
     17 C         140.1433  140.9110  169.2481 C.ar    1  UNL1        0.0299
     18 C         141.4401  141.3570  168.6402 C.ar    1  UNL1        0.1432
     19 F         142.3918  142.1989  169.4374 F       1  UNL1       -0.2041
     20 C         141.7852  140.9610  167.2352 C.ar    1  UNL1        0.0672
     21 C         140.8335  140.1191  166.4381 C.ar    1  UNL1        0.1508
     22 O         141.1786  139.7231  165.0330 O.2     1  UNL1       -0.4486
     23 C         141.7882  137.8870  156.0919 C.3     1  UNL1        0.0992
     24 C         142.2241  136.4830  155.7939 C.ar    1  UNL1       -0.0029
     25 C         143.0626  135.7317  156.7852 C.ar    1  UNL1        0.0004
     26 C         143.4986  134.3277  156.4873 C.ar    1  UNL1        0.0398
     27 C         143.0961  133.6750  155.1980 C.ar    1  UNL1        0.1724
     28 C         142.2577  134.4263  154.2068 C.ar    1  UNL1        0.1721
     29 C         141.8217  135.8303  154.5048 C.ar    1  UNL1        0.0371
     30 O         141.8552  133.7736  152.9176 O.3     1  UNL1       -0.4684
     31 C         142.2912  132.3697  152.6197 C.3     1  UNL1        0.2526
     32 C         143.1296  131.6184  153.6110 C.3     1  UNL1        0.2526
     33 O         143.5321  132.2710  154.9001 O.3     1  UNL1       -0.4684
@<TRIPOS>BOND
     1     7     8    2
     2     8     9   am
     3     9     1    1
     4     1     2    1
     5     2     3    1
     6     3     4    1
     7     4    23    1
     8    23    24    1
     9    24    25   ar
    10    25    26   ar
    11    26    27   ar
    12    27    28   ar
    13    28    29   ar
    14    28    30    1
    15    30    31    1
    16    31    32    1
    17    32    33    1
    18     4     5    1
    19     5     6    1
    20     8    11    1
    21    11    12   ar
    22    12    13   ar
    23    13    14    2
    24    13    15   ar
    25    15    16   ar
    26    16    17   ar
    27    17    18   ar
    28    18    19    1
    29    18    20   ar
    30    20    21   ar
    31    21    22   ar
    32     6     1    1
    33    22    11   ar
    34    29    24   ar
    35    21    15   ar
    36    33    27    1
    37     9    10    1
@<TRIPOS>MOLECULE
*****
 33 37 0 0 0
SMALL
GASTEIGER

@<TRIPOS>ATOM
      1 C         141.1385  144.0632  162.5271 C.3     1  UNL1        0.0747
      2 C         140.2482  145.1849  162.0808 C.3     1  UNL1        0.0369
      3 C         140.3594  145.7202  160.6839 C.3     1  UNL1        0.0741
      4 N         141.3608  145.1338  159.7335 N.3     1  UNL1       -0.2688
      5 C         142.2510  144.0121  160.1798 C.3     1  UNL1        0.0741
      6 C         142.1399  143.4768  161.5766 C.3     1  UNL1        0.0369
      7 O         139.6081  141.5359  163.0476 O.2     1  UNL1       -0.2668
      8 C         140.2621  142.2642  164.1842 C.2     1  UNL1        0.2806
      9 N         141.0273  143.5278  163.9239 N.am    1  UNL1       -0.2999
     10 H         141.4566  144.0059  164.6699 H       1  UNL1        0.1498
     11 C         140.1510  141.7289  165.5809 C.ar    1  UNL1        0.2014
     12 C         139.2458  140.5680  165.8695 C.ar    1  UNL1        0.0843
     13 C         139.1347  140.0327  167.2662 C.ar    1  UNL1        0.2018
     14 O         138.2295  138.8718  167.5548 O.2     1  UNL1       -0.2864
     15 C         139.9287  140.6582  168.3745 C.ar    1  UNL1        0.0737
     16 C         139.8175  140.1228  169.7714 C.ar    1  UNL1        0.0085
     17 C         140.6115  140.7483  170.8797 C.ar    1  UNL1        0.0299
     18 C         141.5167  141.9091  170.5912 C.ar    1  UNL1        0.1432
     19 F         142.3107  142.5346  171.6995 F       1  UNL1       -0.2041
     20 C         141.6278  142.4445  169.1944 C.ar    1  UNL1        0.0672
     21 C         140.8338  141.8190  168.0861 C.ar    1  UNL1        0.1508
     22 O         140.9450  142.3544  166.6893 O.2     1  UNL1       -0.4486
     23 C         141.4719  145.6691  158.3367 C.3     1  UNL1        0.0992
     24 C         140.3740  145.4152  157.3466 C.ar    1  UNL1       -0.0029
     25 C         139.8463  146.5406  156.5069 C.ar    1  UNL1        0.0004
     26 C         138.7485  146.2867  155.5168 C.ar    1  UNL1        0.0398
     27 C         138.1783  144.9074  155.3664 C.ar    1  UNL1        0.1724
     28 C         138.7060  143.7821  156.2061 C.ar    1  UNL1        0.1721
     29 C         139.8039  144.0360  157.1962 C.ar    1  UNL1        0.0371
     30 O         138.1359  142.4028  156.0557 O.3     1  UNL1       -0.4684
     31 C         137.0381  142.1490  155.0656 C.3     1  UNL1        0.2526
     32 C         136.5104  143.2743  154.2259 C.3     1  UNL1        0.2526
     33 O         137.0805  144.6536  154.3763 O.3     1  UNL1       -0.4684
@<TRIPOS>BOND
     1     7     8    2
     2     8     9   am
     3     9     1    1
     4     1     2    1
     5     2     3    1
     6     3     4    1
     7     4    23    1
     8    23    24    1
     9    24    25   ar
    10    25    26   ar
    11    26    27   ar
    12    27    28   ar
    13    28    29   ar
    14    28    30    1
    15    30    31    1
    16    31    32    1
    17    32    33    1
    18     4     5    1
    19     5     6    1
    20     8    11    1
    21    11    12   ar
    22    12    13   ar
    23    13    14    2
    24    13    15   ar
    25    15    16   ar
    26    16    17   ar
    27    17    18   ar
    28    18    19    1
    29    18    20   ar
    30    20    21   ar
    31    21    22   ar
    32     6     1    1
    33    22    11   ar
    34    29    24   ar
    35    21    15   ar
    36    33    27    1
    37     9    10    1
@<TRIPOS>MOLECULE
*****
 33 37 0 0 0
SMALL
GASTEIGER

@<TRIPOS>ATOM
      1 C         142.3801  139.0175  161.9787 C.3     1  UNL1        0.0747
      2 C         141.1424  138.7215  161.1847 C.3     1  UNL1        0.0369
      3 C         141.2119  138.6443  159.6882 C.3     1  UNL1        0.0741
      4 N         142.5191  138.8629  158.9859 N.3     1  UNL1       -0.2688
      5 C         143.7569  139.1589  159.7799 C.3     1  UNL1        0.0741
      6 C         143.6874  139.2361  161.2763 C.3     1  UNL1        0.0369
      7 O         141.9716  141.6663  163.3266 O.2     1  UNL1       -0.2668
      8 C         142.1063  140.4192  164.1490 C.2     1  UNL1        0.2806
      9 N         142.3106  139.0947  163.4750 N.am    1  UNL1       -0.2999
     10 H         142.3990  138.2762  164.0149 H       1  UNL1        0.1498
     11 C         142.0368  140.4964  165.6454 C.ar    1  UNL1        0.2014
     12 C         142.6726  139.4259  166.4820 C.ar    1  UNL1        0.0843
     13 C         142.6031  139.5032  167.9784 C.ar    1  UNL1        0.2018
     14 O         143.2389  138.4327  168.8150 O.2     1  UNL1       -0.2864
     15 C         141.8979  140.6509  168.6382 C.ar    1  UNL1        0.0737
     16 C         141.8284  140.7282  170.1346 C.ar    1  UNL1        0.0085
     17 C         141.1231  141.8759  170.7944 C.ar    1  UNL1        0.0299
     18 C         140.4873  142.9464  169.9578 C.ar    1  UNL1        0.1432
     19 F         139.7821  144.0941  170.6176 F       1  UNL1       -0.2041
     20 C         140.5568  142.8691  168.4614 C.ar    1  UNL1        0.0672
     21 C         141.2621  141.7214  167.8016 C.ar    1  UNL1        0.1508
     22 O         141.3316  141.6441  166.3052 O.2     1  UNL1       -0.4486
     23 C         142.5886  138.7857  157.4895 C.3     1  UNL1        0.0992
     24 C         142.7382  137.4550  156.8133 C.ar    1  UNL1       -0.0029
     25 C         142.6067  137.3523  155.3226 C.ar    1  UNL1        0.0004
     26 C         142.7563  136.0218  154.6465 C.ar    1  UNL1        0.0398
     27 C         143.0373  134.7939  155.4610 C.ar    1  UNL1        0.1724
     28 C         143.1688  134.8966  156.9516 C.ar    1  UNL1        0.1721
     29 C         143.0193  136.2272  157.6278 C.ar    1  UNL1        0.0371
     30 O         143.4499  133.6688  157.7661 O.3     1  UNL1       -0.4684
     31 C         143.5994  132.3383  157.0900 C.3     1  UNL1        0.2526
     32 C         143.4679  132.2356  155.5993 C.3     1  UNL1        0.2526
     33 O         143.1869  133.4634  154.7848 O.3     1  UNL1       -0.4684
@<TRIPOS>BOND
     1     7     8    2
     2     8     9   am
     3     9     1    1
     4     1     2    1
     5     2     3    1
     6     3     4    1
     7     4    23    1
     8    23    24    1
     9    24    25   ar
    10    25    26   ar
    11    26    27   ar
    12    27    28   ar
    13    28    29   ar
    14    28    30    1
    15    30    31    1
    16    31    32    1
    17    32    33    1
    18     4     5    1
    19     5     6    1
    20     8    11    1
    21    11    12   ar
    22    12    13   ar
    23    13    14    2
    24    13    15   ar
    25    15    16   ar
    26    16    17   ar
    27    17    18   ar
    28    18    19    1
    29    18    20   ar
    30    20    21   ar
    31    21    22   ar
    32     6     1    1
    33    22    11   ar
    34    29    24   ar
    35    21    15   ar
    36    33    27    1
    37     9    10    1
@<TRIPOS>MOLECULE
*****
 33 37 0 0 0
SMALL
GASTEIGER

@<TRIPOS>ATOM
      1 C         141.1824  138.8119  159.3857 C.3     1  UNL1        0.0747
      2 C         142.5335  138.2794  159.0100 C.3     1  UNL1        0.0369
      3 C         142.6874  137.4158  157.7932 C.3     1  UNL1        0.0741
      4 N         141.4903  137.0847  156.9522 N.3     1  UNL1       -0.2688
      5 C         140.1393  137.6173  157.3279 C.3     1  UNL1        0.0741
      6 C         139.9853  138.4808  158.5446 C.3     1  UNL1        0.0369
      7 O         140.9865  137.5546  162.1025 O.2     1  UNL1       -0.2668
      8 C         140.9305  139.0468  161.9608 C.2     1  UNL1        0.2806
      9 N         141.0285  139.6755  160.6024 N.am    1  UNL1       -0.2999
     10 H         140.9918  140.6549  160.5095 H       1  UNL1        0.1498
     11 C         140.7766  139.9104  163.1776 C.ar    1  UNL1        0.2014
     12 C         139.6975  140.9513  163.2269 C.ar    1  UNL1        0.0843
     13 C         139.5436  141.8148  164.4437 C.ar    1  UNL1        0.2018
     14 O         138.4645  142.8557  164.4930 O.2     1  UNL1       -0.2864
     15 C         140.4686  141.6376  165.6111 C.ar    1  UNL1        0.0737
     16 C         140.3146  142.5013  166.8279 C.ar    1  UNL1        0.0085
     17 C         141.2397  142.3241  167.9953 C.ar    1  UNL1        0.0299
     18 C         142.3187  141.2832  167.9459 C.ar    1  UNL1        0.1432
     19 F         143.2438  141.1060  169.1133 F       1  UNL1       -0.2041
     20 C         142.4727  140.4197  166.7292 C.ar    1  UNL1        0.0672
     21 C         141.5476  140.5969  165.5618 C.ar    1  UNL1        0.1508
     22 O         141.7016  139.7332  164.3450 O.2     1  UNL1       -0.4486
     23 C         141.6443  136.2212  155.7354 C.3     1  UNL1        0.0992
     24 C         141.9702  134.7647  155.8858 C.ar    1  UNL1       -0.0029
     25 C         141.1691  133.7364  155.1435 C.ar    1  UNL1        0.0004
     26 C         141.4949  132.2800  155.2938 C.ar    1  UNL1        0.0398
     27 C         142.6219  131.8518  156.1864 C.ar    1  UNL1        0.1724
     28 C         143.4230  132.8800  156.9286 C.ar    1  UNL1        0.1721
     29 C         143.0971  134.3365  156.7783 C.ar    1  UNL1        0.0371
     30 O         144.5499  132.4519  157.8212 O.3     1  UNL1       -0.4684
     31 C         144.8757  130.9955  157.9715 C.3     1  UNL1        0.2526
     32 C         144.0747  129.9672  157.2292 C.3     1  UNL1        0.2526
     33 O         142.9477  130.3954  156.3367 O.3     1  UNL1       -0.4684
@<TRIPOS>BOND
     1     7     8    2
     2     8     9   am
     3     9     1    1
     4     1     2    1
     5     2     3    1
     6     3     4    1
     7     4    23    1
     8    23    24    1
     9    24    25   ar
    10    25    26   ar
    11    26    27   ar
    12    27    28   ar
    13    28    29   ar
    14    28    30    1
    15    30    31    1
    16    31    32    1
    17    32    33    1
    18     4     5    1
    19     5     6    1
    20     8    11    1
    21    11    12   ar
    22    12    13   ar
    23    13    14    2
    24    13    15   ar
    25    15    16   ar
    26    16    17   ar
    27    17    18   ar
    28    18    19    1
    29    18    20   ar
    30    20    21   ar
    31    21    22   ar
    32     6     1    1
    33    22    11   ar
    34    29    24   ar
    35    21    15   ar
    36    33    27    1
    37     9    10    1
@<TRIPOS>MOLECULE
*****
 33 37 0 0 0
SMALL
GASTEIGER

@<TRIPOS>ATOM
      1 C         141.3508  138.5571  158.7301 C.3     1  UNL1        0.0747
      2 C         140.1415  138.1887  157.9228 C.3     1  UNL1        0.0369
      3 C         140.2634  137.2078  156.7944 C.3     1  UNL1        0.0741
      4 N         141.5945  136.5954  156.4735 N.3     1  UNL1       -0.2688
      5 C         142.8038  136.9638  157.2809 C.3     1  UNL1        0.0741
      6 C         142.6820  137.9446  158.4092 C.3     1  UNL1        0.0369
      7 O         141.3725  137.5879  161.5692 O.2     1  UNL1       -0.2668
      8 C         141.2399  139.0533  161.2779 C.2     1  UNL1        0.2806
      9 N         141.2290  139.5379  159.8584 N.am    1  UNL1       -0.2999
     10 H         141.1420  140.4998  159.6673 H       1  UNL1        0.1498
     11 C         141.1181  140.0341  162.4062 C.ar    1  UNL1        0.2014
     12 C         142.2207  140.1567  163.4158 C.ar    1  UNL1        0.0843
     13 C         142.0989  141.1375  164.5441 C.ar    1  UNL1        0.2018
     14 O         143.2016  141.2601  165.5537 O.2     1  UNL1       -0.2864
     15 C         140.8745  141.9958  164.6629 C.ar    1  UNL1        0.0737
     16 C         140.7527  142.9767  165.7913 C.ar    1  UNL1        0.0085
     17 C         139.5283  143.8350  165.9101 C.ar    1  UNL1        0.0299
     18 C         138.4256  143.7124  164.9005 C.ar    1  UNL1        0.1432
     19 F         137.2012  144.5707  165.0193 F       1  UNL1       -0.2041
     20 C         138.5474  142.7316  163.7722 C.ar    1  UNL1        0.0672
     21 C         139.7719  141.8733  163.6534 C.ar    1  UNL1        0.1508
     22 O         139.8936  140.8924  162.5250 O.2     1  UNL1       -0.4486
     23 C         141.7163  135.6145  155.3452 C.3     1  UNL1        0.0992
     24 C         141.9933  134.1690  155.6346 C.ar    1  UNL1       -0.0029
     25 C         141.1560  133.1020  154.9939 C.ar    1  UNL1        0.0004
     26 C         141.4330  131.6565  155.2833 C.ar    1  UNL1        0.0398
     27 C         142.5473  131.2779  156.2134 C.ar    1  UNL1        0.1724
     28 C         143.3846  132.3449  156.8541 C.ar    1  UNL1        0.1721
     29 C         143.1076  133.7905  156.5647 C.ar    1  UNL1        0.0371
     30 O         144.4989  131.9664  157.7842 O.3     1  UNL1       -0.4684
     31 C         144.7759  130.5209  158.0736 C.3     1  UNL1        0.2526
     32 C         143.9386  129.4539  157.4329 C.3     1  UNL1        0.2526
     33 O         142.8243  129.8324  156.5028 O.3     1  UNL1       -0.4684
@<TRIPOS>BOND
     1     7     8    2
     2     8     9   am
     3     9     1    1
     4     1     2    1
     5     2     3    1
     6     3     4    1
     7     4    23    1
     8    23    24    1
     9    24    25   ar
    10    25    26   ar
    11    26    27   ar
    12    27    28   ar
    13    28    29   ar
    14    28    30    1
    15    30    31    1
    16    31    32    1
    17    32    33    1
    18     4     5    1
    19     5     6    1
    20     8    11    1
    21    11    12   ar
    22    12    13   ar
    23    13    14    2
    24    13    15   ar
    25    15    16   ar
    26    16    17   ar
    27    17    18   ar
    28    18    19    1
    29    18    20   ar
    30    20    21   ar
    31    21    22   ar
    32     6     1    1
    33    22    11   ar
    34    29    24   ar
    35    21    15   ar
    36    33    27    1
    37     9    10    1
@<TRIPOS>MOLECULE
*****
 33 37 0 0 0
SMALL
GASTEIGER

@<TRIPOS>ATOM
      1 C         141.2602  144.2759  162.5585 C.3     1  UNL1        0.0747
      2 C         140.2686  145.2908  162.0717 C.3     1  UNL1        0.0369
      3 C         140.1817  145.6129  160.6092 C.3     1  UNL1        0.0741
      4 N         141.0863  144.9202  159.6336 N.3     1  UNL1       -0.2688
      5 C         142.0778  143.9054  160.1204 C.3     1  UNL1        0.0741
      6 C         142.1648  143.5832  161.5828 C.3     1  UNL1        0.0369
      7 O         140.3539  141.5976  163.5610 O.2     1  UNL1       -0.2668
      8 C         140.8941  142.6146  164.5221 C.2     1  UNL1        0.2806
      9 N         141.3472  143.9538  164.0209 N.am    1  UNL1       -0.2999
     10 H         141.7017  144.6213  164.6517 H       1  UNL1        0.1498
     11 C         140.9810  142.2925  165.9845 C.ar    1  UNL1        0.2014
     12 C         140.4420  143.2576  166.9985 C.ar    1  UNL1        0.0843
     13 C         140.5290  142.9355  168.4609 C.ar    1  UNL1        0.2018
     14 O         139.9900  143.9006  169.4748 O.2     1  UNL1       -0.2864
     15 C         141.1550  141.6483  168.9094 C.ar    1  UNL1        0.0737
     16 C         141.2420  141.3262  170.3719 C.ar    1  UNL1        0.0085
     17 C         141.8680  140.0390  170.8204 C.ar    1  UNL1        0.0299
     18 C         142.4070  139.0738  169.8064 C.ar    1  UNL1        0.1432
     19 F         143.0330  137.7866  170.2549 F       1  UNL1       -0.2041
     20 C         142.3200  139.3960  168.3440 C.ar    1  UNL1        0.0672
     21 C         141.6940  140.6832  167.8955 C.ar    1  UNL1        0.1508
     22 O         141.6071  141.0053  166.4330 O.2     1  UNL1       -0.4486
     23 C         140.9993  145.2423  158.1712 C.3     1  UNL1        0.0992
     24 C         139.8493  144.7277  157.3570 C.ar    1  UNL1       -0.0029
     25 C         139.3455  145.5193  156.1867 C.ar    1  UNL1        0.0004
     26 C         138.1956  145.0048  155.3724 C.ar    1  UNL1        0.0398
     27 C         137.5495  143.6986  155.7285 C.ar    1  UNL1        0.1724
     28 C         138.0534  142.9071  156.8988 C.ar    1  UNL1        0.1721
     29 C         139.2033  143.4217  157.7130 C.ar    1  UNL1        0.0371
     30 O         137.4073  141.6010  157.2548 O.3     1  UNL1       -0.4684
     31 C         136.2575  141.0865  156.4406 C.3     1  UNL1        0.2526
     32 C         135.7536  141.8781  155.2703 C.3     1  UNL1        0.2526
     33 O         136.3997  143.1841  154.9142 O.3     1  UNL1       -0.4684
@<TRIPOS>BOND
     1     7     8    2
     2     8     9   am
     3     9     1    1
     4     1     2    1
     5     2     3    1
     6     3     4    1
     7     4    23    1
     8    23    24    1
     9    24    25   ar
    10    25    26   ar
    11    26    27   ar
    12    27    28   ar
    13    28    29   ar
    14    28    30    1
    15    30    31    1
    16    31    32    1
    17    32    33    1
    18     4     5    1
    19     5     6    1
    20     8    11    1
    21    11    12   ar
    22    12    13   ar
    23    13    14    2
    24    13    15   ar
    25    15    16   ar
    26    16    17   ar
    27    17    18   ar
    28    18    19    1
    29    18    20   ar
    30    20    21   ar
    31    21    22   ar
    32     6     1    1
    33    22    11   ar
    34    29    24   ar
    35    21    15   ar
    36    33    27    1
    37     9    10    1
