@<TRIPOS>MOLECULE
*****
 20 23 0 0 0
SMALL
GASTEIGER

@<TRIPOS>ATOM
      1 O         138.9964  144.7975  164.8279 O.2     1  UNL1       -0.2523
      2 C         139.1817  143.8080  163.7159 C.2     1  UNL1        0.3077
      3 N         139.4811  144.2884  162.3268 N.am    1  UNL1       -0.2612
      4 C         139.6664  143.2989  161.2147 C.3     1  UNL1        0.1123
      5 C         139.9658  143.7792  159.8256 C.3     1  UNL1        0.0939
      6 N         140.0798  145.2490  159.5485 N.3     1  UNL1       -0.2711
      7 C         139.8945  146.2384  160.6605 C.3     1  UNL1        0.0939
      8 C         139.5951  145.7581  162.0497 C.3     1  UNL1        0.1123
      9 N         139.0677  142.3383  163.9930 N.am    1  UNL1       -0.2558
     10 C         138.7743  141.7121  165.3241 C.3     1  UNL1        0.1217
     11 C         138.7523  140.2235  165.1414 C.ar    1  UNL1       -0.0046
     12 C         138.5136  139.0976  166.1034 C.ar    1  UNL1       -0.0029
     13 C         138.5548  137.6778  165.6213 C.ar    1  UNL1       -0.0003
     14 C         138.8346  137.3839  164.1772 C.ar    1  UNL1       -0.0003
     15 C         139.0733  138.5097  163.2152 C.ar    1  UNL1       -0.0029
     16 C         139.0321  139.9295  163.6973 C.ar    1  UNL1       -0.0046
     17 C         139.2271  141.2365  162.9876 C.3     1  UNL1        0.1217
     18 C         140.3792  145.7293  158.1593 C.3     1  UNL1        0.0577
     19 C         141.3526  145.9304  157.0359 C.3     1  UNL1        0.0173
     20 C         139.9243  146.3601  156.8766 C.3     1  UNL1        0.0173
@<TRIPOS>BOND
     1     1     2    2
     2     2     3   am
     3     3     4    1
     4     4     5    1
     5     5     6    1
     6     6    18    1
     7    18    19    1
     8    19    20    1
     9     6     7    1
    10     7     8    1
    11     2     9   am
    12     9    10    1
    13    10    11    1
    14    11    12   ar
    15    12    13   ar
    16    13    14   ar
    17    14    15   ar
    18    15    16   ar
    19    16    17    1
    20     8     3    1
    21    17     9    1
    22    20    18    1
    23    16    11   ar
@<TRIPOS>MOLECULE
*****
 20 23 0 0 0
SMALL
GASTEIGER

@<TRIPOS>ATOM
      1 O         137.9352  138.5136  166.3229 O.2     1  UNL1       -0.2523
      2 C         139.2715  139.0999  165.9759 C.2     1  UNL1        0.3077
      3 N         139.8365  138.9157  164.5987 N.am    1  UNL1       -0.2612
      4 C         141.1729  139.5021  164.2516 C.3     1  UNL1        0.1123
      5 C         141.7379  139.3179  162.8744 C.3     1  UNL1        0.0939
      6 N         140.9665  138.5475  161.8441 N.3     1  UNL1       -0.2711
      7 C         139.6302  137.9612  162.1911 C.3     1  UNL1        0.0939
      8 C         139.0651  138.1453  163.5684 C.3     1  UNL1        0.1123
      9 N         140.0429  139.8703  167.0062 N.am    1  UNL1       -0.2558
     10 C         139.6082  140.1353  168.4171 C.3     1  UNL1        0.1217
     11 C         140.6810  140.9398  169.0894 C.ar    1  UNL1       -0.0046
     12 C         140.8001  141.4909  170.4793 C.ar    1  UNL1       -0.0029
     13 C         142.0170  142.2742  170.8738 C.ar    1  UNL1       -0.0003
     14 C         143.1147  142.5064  169.8783 C.ar    1  UNL1       -0.0003
     15 C         142.9956  141.9553  168.4883 C.ar    1  UNL1       -0.0029
     16 C         141.7788  141.1720  168.0939 C.ar    1  UNL1       -0.0046
     17 C         141.3844  140.5110  166.8064 C.3     1  UNL1        0.1217
     18 C         141.5315  138.3634  160.4668 C.3     1  UNL1        0.0577
     19 C         142.6550  137.9344  159.5703 C.3     1  UNL1        0.0173
     20 C         141.3868  138.4735  158.9779 C.3     1  UNL1        0.0173
@<TRIPOS>BOND
     1     1     2    2
     2     2     3   am
     3     3     4    1
     4     4     5    1
     5     5     6    1
     6     6    18    1
     7    18    19    1
     8    19    20    1
     9     6     7    1
    10     7     8    1
    11     2     9   am
    12     9    10    1
    13    10    11    1
    14    11    12   ar
    15    12    13   ar
    16    13    14   ar
    17    14    15   ar
    18    15    16   ar
    19    16    17    1
    20     8     3    1
    21    17     9    1
    22    20    18    1
    23    16    11   ar
@<TRIPOS>MOLECULE
*****
 20 23 0 0 0
SMALL
GASTEIGER

@<TRIPOS>ATOM
      1 O         139.3741  144.6662  165.2487 O.2     1  UNL1       -0.2523
      2 C         140.3043  143.8888  164.3653 C.2     1  UNL1        0.3077
      3 N         140.5204  144.3158  162.9438 N.am    1  UNL1       -0.2612
      4 C         141.4507  143.5384  162.0603 C.3     1  UNL1        0.1123
      5 C         141.6668  143.9654  160.6387 C.3     1  UNL1        0.0939
      6 N         140.9527  145.1698  160.1005 N.3     1  UNL1       -0.2711
      7 C         140.0226  145.9472  160.9839 C.3     1  UNL1        0.0939
      8 C         139.8064  145.5202  162.4056 C.3     1  UNL1        0.1123
      9 N         141.0184  142.6844  164.9035 N.am    1  UNL1       -0.2558
     10 C         140.9026  142.1402  166.2965 C.3     1  UNL1        0.1217
     11 C         141.7863  140.9322  166.3971 C.ar    1  UNL1       -0.0046
     12 C         142.0737  139.9904  167.5286 C.ar    1  UNL1       -0.0029
     13 C         143.0230  138.8463  167.3292 C.ar    1  UNL1       -0.0003
     14 C         143.6848  138.6440  165.9984 C.ar    1  UNL1       -0.0003
     15 C         143.3974  139.5858  164.8669 C.ar    1  UNL1       -0.0029
     16 C         142.4481  140.7299  165.0663 C.ar    1  UNL1       -0.0046
     17 C         141.9735  141.8129  164.1432 C.3     1  UNL1        0.1217
     18 C         141.1689  145.5968  158.6789 C.3     1  UNL1        0.0577
     19 C         140.6140  146.0060  157.3468 C.3     1  UNL1        0.0173
     20 C         142.0982  145.9271  157.5487 C.3     1  UNL1        0.0173
@<TRIPOS>BOND
     1     1     2    2
     2     2     3   am
     3     3     4    1
     4     4     5    1
     5     5     6    1
     6     6    18    1
     7    18    19    1
     8    19    20    1
     9     6     7    1
    10     7     8    1
    11     2     9   am
    12     9    10    1
    13    10    11    1
    14    11    12   ar
    15    12    13   ar
    16    13    14   ar
    17    14    15   ar
    18    15    16   ar
    19    16    17    1
    20     8     3    1
    21    17     9    1
    22    20    18    1
    23    16    11   ar
@<TRIPOS>MOLECULE
*****
 20 23 0 0 0
SMALL
GASTEIGER

@<TRIPOS>ATOM
      1 O         137.5061  139.6450  161.4994 O.2     1  UNL1       -0.2523
      2 C         138.3603  140.7509  162.0448 C.2     1  UNL1        0.3077
      3 N         138.8438  141.8425  161.1368 N.am    1  UNL1       -0.2612
      4 C         139.6980  142.9484  161.6822 C.3     1  UNL1        0.1123
      5 C         140.1816  144.0400  160.7742 C.3     1  UNL1        0.0939
      6 N         139.8110  144.0257  159.3207 N.3     1  UNL1       -0.2711
      7 C         138.9569  142.9198  158.7753 C.3     1  UNL1        0.0939
      8 C         138.4733  141.8282  159.6834 C.3     1  UNL1        0.1123
      9 N         138.7308  140.7652  163.4983 N.am    1  UNL1       -0.2558
     10 C         138.3238  139.7472  164.5220 C.3     1  UNL1        0.1217
     11 C         138.9149  140.1528  165.8396 C.ar    1  UNL1       -0.0046
     12 C         138.8496  139.5308  167.2030 C.ar    1  UNL1       -0.0029
     13 C         139.5567  140.1775  168.3570 C.ar    1  UNL1       -0.0003
     14 C         140.3290  141.4463  168.1476 C.ar    1  UNL1       -0.0003
     15 C         140.3943  142.0683  166.7842 C.ar    1  UNL1       -0.0029
     16 C         139.6872  141.4215  165.6302 C.ar    1  UNL1       -0.0046
     17 C         139.5734  141.8000  164.1832 C.3     1  UNL1        0.1217
     18 C         140.2946  145.1174  158.4127 C.3     1  UNL1        0.0577
     19 C         141.4232  145.8675  157.7697 C.3     1  UNL1        0.0173
     20 C         140.0036  146.2580  157.4829 C.3     1  UNL1        0.0173
@<TRIPOS>BOND
     1     1     2    2
     2     2     3   am
     3     3     4    1
     4     4     5    1
     5     5     6    1
     6     6    18    1
     7    18    19    1
     8    19    20    1
     9     6     7    1
    10     7     8    1
    11     2     9   am
    12     9    10    1
    13    10    11    1
    14    11    12   ar
    15    12    13   ar
    16    13    14   ar
    17    14    15   ar
    18    15    16   ar
    19    16    17    1
    20     8     3    1
    21    17     9    1
    22    20    18    1
    23    16    11   ar
@<TRIPOS>MOLECULE
*****
 20 23 0 0 0
SMALL
GASTEIGER

@<TRIPOS>ATOM
      1 O         137.9306  139.7008  165.2494 O.2     1  UNL1       -0.2523
      2 C         139.0785  140.6659  165.2215 C.2     1  UNL1        0.3077
      3 N         139.3046  141.5277  164.0149 N.am    1  UNL1       -0.2612
      4 C         140.4526  142.4929  163.9869 C.3     1  UNL1        0.1123
      5 C         140.6787  143.3547  162.7803 C.3     1  UNL1        0.0939
      6 N         139.7568  143.2514  161.6015 N.3     1  UNL1       -0.2711
      7 C         138.6089  142.2863  161.6294 C.3     1  UNL1        0.0939
      8 C         138.3828  141.4244  162.8361 C.3     1  UNL1        0.1123
      9 N         140.0003  140.7692  166.4003 N.am    1  UNL1       -0.2558
     10 C         139.9004  139.9765  167.6699 C.3     1  UNL1        0.1217
     11 C         141.0223  140.4007  168.5707 C.ar    1  UNL1       -0.0046
     12 C         141.4239  139.9627  169.9480 C.ar    1  UNL1       -0.0029
     13 C         142.6189  140.5796  170.6124 C.ar    1  UNL1       -0.0003
     14 C         143.4122  141.6344  169.8996 C.ar    1  UNL1       -0.0003
     15 C         143.0105  142.0723  168.5224 C.ar    1  UNL1       -0.0029
     16 C         141.8156  141.4555  167.8580 C.ar    1  UNL1       -0.0046
     17 C         141.1840  141.6832  166.5166 C.3     1  UNL1        0.1217
     18 C         139.9830  144.1133  160.3948 C.3     1  UNL1        0.0577
     19 C         140.3635  145.4344  159.7949 C.3     1  UNL1        0.0173
     20 C         139.9941  144.2850  158.9047 C.3     1  UNL1        0.0173
@<TRIPOS>BOND
     1     1     2    2
     2     2     3   am
     3     3     4    1
     4     4     5    1
     5     5     6    1
     6     6    18    1
     7    18    19    1
     8    19    20    1
     9     6     7    1
    10     7     8    1
    11     2     9   am
    12     9    10    1
    13    10    11    1
    14    11    12   ar
    15    12    13   ar
    16    13    14   ar
    17    14    15   ar
    18    15    16   ar
    19    16    17    1
    20     8     3    1
    21    17     9    1
    22    20    18    1
    23    16    11   ar
@<TRIPOS>MOLECULE
*****
 20 23 0 0 0
SMALL
GASTEIGER

@<TRIPOS>ATOM
      1 O         143.9362  138.0176  166.2906 O.2     1  UNL1       -0.2523
      2 C         143.3104  139.3443  165.9773 C.2     1  UNL1        0.3077
      3 N         143.3832  139.8977  164.5850 N.am    1  UNL1       -0.2612
      4 C         142.7574  141.2245  164.2716 C.3     1  UNL1        0.1123
      5 C         142.8302  141.7779  162.8794 C.3     1  UNL1        0.0939
      6 N         143.5287  141.0046  161.8005 N.3     1  UNL1       -0.2711
      7 C         144.1545  139.6779  162.1138 C.3     1  UNL1        0.0939
      8 C         144.0818  139.1244  163.5061 C.3     1  UNL1        0.1123
      9 N         142.6119  140.1176  167.0562 N.am    1  UNL1       -0.2558
     10 C         142.4596  139.6940  168.4870 C.3     1  UNL1        0.1217
     11 C         141.6966  140.7649  169.2089 C.ar    1  UNL1       -0.0046
     12 C         141.2513  140.8918  170.6356 C.ar    1  UNL1       -0.0029
     13 C         140.4867  142.1042  171.0775 C.ar    1  UNL1       -0.0003
     14 C         140.1674  143.1897  170.0928 C.ar    1  UNL1       -0.0003
     15 C         140.6127  143.0628  168.6661 C.ar    1  UNL1       -0.0029
     16 C         141.3773  141.8504  168.2241 C.ar    1  UNL1       -0.0046
     17 C         141.9430  141.4503  166.8937 C.3     1  UNL1        0.1217
     18 C         143.6015  141.5581  160.4082 C.3     1  UNL1        0.0577
     19 C         143.1956  141.5022  158.9652 C.3     1  UNL1        0.0173
     20 C         144.1333  142.5725  159.4396 C.3     1  UNL1        0.0173
@<TRIPOS>BOND
     1     1     2    2
     2     2     3   am
     3     3     4    1
     4     4     5    1
     5     5     6    1
     6     6    18    1
     7    18    19    1
     8    19    20    1
     9     6     7    1
    10     7     8    1
    11     2     9   am
    12     9    10    1
    13    10    11    1
    14    11    12   ar
    15    12    13   ar
    16    13    14   ar
    17    14    15   ar
    18    15    16   ar
    19    16    17    1
    20     8     3    1
    21    17     9    1
    22    20    18    1
    23    16    11   ar
@<TRIPOS>MOLECULE
*****
 20 23 0 0 0
SMALL
GASTEIGER

@<TRIPOS>ATOM
      1 O         141.6595  145.1464  163.8125 O.2     1  UNL1       -0.2523
      2 C         140.7987  144.0428  163.2732 C.2     1  UNL1        0.3077
      3 N         140.4253  144.0246  161.8206 N.am    1  UNL1       -0.2612
      4 C         139.5644  142.9209  161.2812 C.3     1  UNL1        0.1123
      5 C         139.1910  142.9027  159.8286 C.3     1  UNL1        0.0939
      6 N         139.6784  143.9881  158.9153 N.3     1  UNL1       -0.2711
      7 C         140.5393  145.0918  159.4545 C.3     1  UNL1        0.0939
      8 C         140.9127  145.1100  160.9072 C.3     1  UNL1        0.1123
      9 N         140.3112  142.9574  164.1866 N.am    1  UNL1       -0.2558
     10 C         140.6012  142.8434  165.6539 C.3     1  UNL1        0.1217
     11 C         139.9174  141.6109  166.1672 C.ar    1  UNL1       -0.0046
     12 C         139.8516  140.9948  167.5332 C.ar    1  UNL1       -0.0029
     13 C         139.0731  139.7310  167.7491 C.ar    1  UNL1       -0.0003
     14 C         138.3605  139.0832  166.5990 C.ar    1  UNL1       -0.0003
     15 C         138.4263  139.6994  165.2330 C.ar    1  UNL1       -0.0029
     16 C         139.2048  140.9632  165.0171 C.ar    1  UNL1       -0.0046
     17 C         139.4482  141.7954  163.7931 C.3     1  UNL1        0.1217
     18 C         139.3050  143.9699  157.4625 C.3     1  UNL1        0.0577
     19 C         138.5824  143.3288  156.3150 C.3     1  UNL1        0.0173
     20 C         139.3807  144.5793  156.0940 C.3     1  UNL1        0.0173
@<TRIPOS>BOND
     1     1     2    2
     2     2     3   am
     3     3     4    1
     4     4     5    1
     5     5     6    1
     6     6    18    1
     7    18    19    1
     8    19    20    1
     9     6     7    1
    10     7     8    1
    11     2     9   am
    12     9    10    1
    13    10    11    1
    14    11    12   ar
    15    12    13   ar
    16    13    14   ar
    17    14    15   ar
    18    15    16   ar
    19    16    17    1
    20     8     3    1
    21    17     9    1
    22    20    18    1
    23    16    11   ar
@<TRIPOS>MOLECULE
*****
 20 23 0 0 0
SMALL
GASTEIGER

@<TRIPOS>ATOM
      1 O         137.7158  139.1124  162.1013 O.2     1  UNL1       -0.2523
      2 C         138.4802  140.2471  162.7163 C.2     1  UNL1        0.3077
      3 N         138.7721  140.2445  164.1875 N.am    1  UNL1       -0.2612
      4 C         139.5365  141.3792  164.8026 C.3     1  UNL1        0.1123
      5 C         139.8284  141.3765  166.2739 C.3     1  UNL1        0.0939
      6 N         139.3559  140.2392  167.1302 N.3     1  UNL1       -0.2711
      7 C         138.5916  139.1045  166.5152 C.3     1  UNL1        0.0939
      8 C         138.2997  139.1071  165.0439 C.3     1  UNL1        0.1123
      9 N         138.9526  141.3845  161.8599 N.am    1  UNL1       -0.2558
     10 C         138.7369  141.5242  160.3821 C.3     1  UNL1        0.1217
     11 C         139.3747  142.8079  159.9399 C.ar    1  UNL1       -0.0046
     12 C         139.4789  143.4660  158.5961 C.ar    1  UNL1       -0.0029
     13 C         140.1929  144.7777  158.4568 C.ar    1  UNL1       -0.0003
     14 C         140.8028  145.4313  159.6613 C.ar    1  UNL1       -0.0003
     15 C         140.6986  144.7732  161.0052 C.ar    1  UNL1       -0.0029
     16 C         139.9845  143.4615  161.1445 C.ar    1  UNL1       -0.0046
     17 C         139.7237  142.5817  162.3311 C.3     1  UNL1        0.1217
     18 C         139.6479  140.2366  168.6016 C.3     1  UNL1        0.0577
     19 C         140.5889  139.9696  169.7387 C.3     1  UNL1        0.0173
     20 C         139.2125  140.4990  170.0128 C.3     1  UNL1        0.0173
@<TRIPOS>BOND
     1     1     2    2
     2     2     3   am
     3     3     4    1
     4     4     5    1
     5     5     6    1
     6     6    18    1
     7    18    19    1
     8    19    20    1
     9     6     7    1
    10     7     8    1
    11     2     9   am
    12     9    10    1
    13    10    11    1
    14    11    12   ar
    15    12    13   ar
    16    13    14   ar
    17    14    15   ar
    18    15    16   ar
    19    16    17    1
    20     8     3    1
    21    17     9    1
    22    20    18    1
    23    16    11   ar
@<TRIPOS>MOLECULE
*****
 20 23 0 0 0
SMALL
GASTEIGER

@<TRIPOS>ATOM
      1 O         137.6954  140.3630  163.4042 O.2     1  UNL1       -0.2523
      2 C         139.1203  139.9077  163.5150 C.2     1  UNL1        0.3077
      3 N         139.8769  139.5055  162.2839 N.am    1  UNL1       -0.2612
      4 C         141.3019  139.0501  162.3947 C.3     1  UNL1        0.1123
      5 C         142.0586  138.6479  161.1636 C.3     1  UNL1        0.0939
      6 N         141.3904  138.7009  159.8217 N.3     1  UNL1       -0.2711
      7 C         139.9655  139.1562  159.7109 C.3     1  UNL1        0.0939
      8 C         139.2087  139.5585  160.9420 C.3     1  UNL1        0.1123
      9 N         139.7885  139.8547  164.8569 N.am    1  UNL1       -0.2558
     10 C         139.1623  140.2241  166.1689 C.3     1  UNL1        0.1217
     11 C         140.1870  140.0206  167.2453 C.ar    1  UNL1       -0.0046
     12 C         140.1359  140.2222  168.7307 C.ar    1  UNL1       -0.0029
     13 C         141.3444  139.9287  169.5694 C.ar    1  UNL1       -0.0003
     14 C         142.6040  139.4336  168.9226 C.ar    1  UNL1       -0.0003
     15 C         142.6551  139.2320  167.4371 C.ar    1  UNL1       -0.0029
     16 C         141.4466  139.5255  166.5984 C.ar    1  UNL1       -0.0046
     17 C         141.2003  139.4230  165.1224 C.3     1  UNL1        0.1217
     18 C         142.1471  138.2987  158.5906 C.3     1  UNL1        0.0577
     19 C         142.9798  138.6681  157.3989 C.3     1  UNL1        0.0173
     20 C         142.6251  137.2325  157.6500 C.3     1  UNL1        0.0173
@<TRIPOS>BOND
     1     1     2    2
     2     2     3   am
     3     3     4    1
     4     4     5    1
     5     5     6    1
     6     6    18    1
     7    18    19    1
     8    19    20    1
     9     6     7    1
    10     7     8    1
    11     2     9   am
    12     9    10    1
    13    10    11    1
    14    11    12   ar
    15    12    13   ar
    16    13    14   ar
    17    14    15   ar
    18    15    16   ar
    19    16    17    1
    20     8     3    1
    21    17     9    1
    22    20    18    1
    23    16    11   ar
