@<TRIPOS>MOLECULE
*****
 38 42 0 0 0
SMALL
GASTEIGER

@<TRIPOS>ATOM
      1 N         141.6459  137.7601  156.8041 N.am    1  UNL1       -0.3018
      2 C         142.3224  138.7247  155.8757 C.2     1  UNL1        0.2425
      3 O         143.0070  139.9406  156.4260 O.2     1  UNL1       -0.2733
      4 H         141.1966  136.9620  156.4429 H       1  UNL1        0.1495
      5 N         141.6657  138.3670  160.3741 N.3     1  UNL1       -0.2711
      6 C         142.6635  137.8501  159.3806 C.3     1  UNL1        0.0933
      7 C         141.6541  138.0115  158.2828 C.3     1  UNL1        0.1035
      8 C         140.6563  138.5284  159.2764 C.3     1  UNL1        0.0933
      9 C         141.6901  139.1213  164.8104 C.3     1  UNL1        0.0240
     10 C         141.9624  140.2467  163.8567 C.3     1  UNL1        0.0058
     11 C         141.9543  139.9952  162.3781 C.3     1  UNL1        0.0163
     12 C         141.6738  138.6185  161.8529 C.3     1  UNL1        0.0576
     13 C         141.4015  137.4931  162.8065 C.3     1  UNL1        0.0163
     14 C         141.4096  137.7445  164.2853 C.3     1  UNL1        0.0058
     15 C         141.7143  139.8760  169.2466 C.ar    1  UNL1        0.2250
     16 C         140.5030  140.2241  168.4333 C.ar    1  UNL1        0.0574
     17 C         140.4950  139.9725  166.9545 C.ar    1  UNL1        0.0020
     18 C         141.6982  139.3728  166.2891 C.ar    1  UNL1       -0.0031
     19 C         142.9095  139.0248  167.1025 C.ar    1  UNL1        0.0977
     20 N         142.9175  139.2763  168.5813 N.ar    1  UNL1       -0.2105
     21 C         140.9619  141.2894  171.2926 C.3     1  UNL1        0.2542
     22 O         141.7224  140.1276  170.7253 O.3     1  UNL1       -0.4561
     23 C         142.3143  138.4732  154.3969 C.3     1  UNL1        0.1747
     24 N         143.0061  137.2654  153.8377 N.pl3   1  UNL1       -0.3080
     25 H         143.9296  137.3375  153.5041 H       1  UNL1        0.1487
     26 C         142.2909  135.9479  153.7867 C.ar    1  UNL1        0.1708
     27 N         141.1555  135.5958  152.8719 N.ar    1  UNL1       -0.0621
     28 O         140.7485  134.1814  153.1615 O.2     1  UNL1       -0.3522
     29 C         141.6323  133.6594  154.2553 C.ar    1  UNL1        0.1781
     30 C         141.6922  132.3310  154.9493 C.ar    1  UNL1        0.0402
     31 C         142.7054  132.0943  156.0297 C.ar    1  UNL1        0.0071
     32 C         143.6587  133.1861  156.4162 C.ar    1  UNL1        0.0717
     33 C         143.5988  134.5145  155.7222 C.ar    1  UNL1        0.0099
     34 C         142.5856  134.7511  154.6417 C.ar    1  UNL1        0.0717
     35 C         144.6719  132.9494  157.4967 C.3     1  UNL1        0.4186
     36 F         145.6850  132.7127  158.5772 F       1  UNL1       -0.1659
     37 F         145.4159  132.0109  156.5935 F       1  UNL1       -0.1659
     38 F         143.9279  133.8878  158.3999 F       1  UNL1       -0.1659
@<TRIPOS>BOND
     1    21    22    1
     2    22    15    1
     3    15    16   ar
     4    16    17   ar
     5    17    18   ar
     6     9    18    1
     7     9    10    1
     8    10    11    1
     9    11    12    1
    10    12     5    1
    11     5     6    1
    12     6     7    1
    13     7     1    1
    14     1     2   am
    15     2     3    2
    16     2    23    1
    17    23    24    1
    18    24    26    1
    19    26    27   ar
    20    27    28   ar
    21    28    29   ar
    22    29    30   ar
    23    30    31   ar
    24    31    32   ar
    25    32    35    1
    26    35    36    1
    27    35    37    1
    28    35    38    1
    29    32    33   ar
    30    33    34   ar
    31     7     8    1
    32    12    13    1
    33    13    14    1
    34    18    19   ar
    35    19    20   ar
    36    20    15   ar
    37    14     9    1
    38     8     5    1
    39    34    26   ar
    40    34    29   ar
    41     1     4    1
    42    24    25    1
@<TRIPOS>MOLECULE
*****
 38 42 0 0 0
SMALL
GASTEIGER

@<TRIPOS>ATOM
      1 N         142.4684  137.3575  157.4463 N.am    1  UNL1       -0.3018
      2 C         143.3487  138.2359  156.6075 C.2     1  UNL1        0.2425
      3 O         144.0088  139.4371  157.2168 O.2     1  UNL1       -0.2733
      4 H         142.0352  136.5691  157.0464 H       1  UNL1        0.1495
      5 N         141.9370  138.1372  160.9426 N.3     1  UNL1       -0.2711
      6 C         141.2028  138.4286  159.6674 C.3     1  UNL1        0.0933
      7 C         142.2483  137.6804  158.8945 C.3     1  UNL1        0.1035
      8 C         142.9824  137.3891  160.1697 C.3     1  UNL1        0.0933
      9 C         141.2766  139.1060  165.2872 C.3     1  UNL1        0.0240
     10 C         140.6960  137.8530  164.7014 C.3     1  UNL1        0.0058
     11 C         140.9161  137.5301  163.2533 C.3     1  UNL1        0.0163
     12 C         141.7168  138.4601  162.3908 C.3     1  UNL1        0.0576
     13 C         142.2974  139.7131  162.9764 C.3     1  UNL1        0.0163
     14 C         142.0773  140.0360  164.4246 C.3     1  UNL1        0.0058
     15 C         140.6163  140.0745  169.6318 C.ar    1  UNL1        0.2250
     16 C         142.0102  139.9002  169.1057 C.ar    1  UNL1        0.0574
     17 C         142.2302  139.5773  167.6575 C.ar    1  UNL1        0.0020
     18 C         141.0564  139.4288  166.7353 C.ar    1  UNL1       -0.0031
     19 C         139.6626  139.6032  167.2615 C.ar    1  UNL1        0.0977
     20 N         139.4426  139.9260  168.7097 N.ar    1  UNL1       -0.2105
     21 C         140.7247  141.7647  171.6019 C.3     1  UNL1        0.2542
     22 O         140.3963  140.3973  171.0800 O.3     1  UNL1       -0.4561
     23 C         143.5688  137.9129  155.1593 C.3     1  UNL1        0.1747
     24 N         144.0271  136.5422  154.7578 N.pl3   1  UNL1       -0.3080
     25 H         144.9837  136.3689  154.6023 H       1  UNL1        0.1487
     26 C         143.0279  135.4356  154.5931 C.ar    1  UNL1        0.1708
     27 N         141.8094  135.4707  153.7191 N.ar    1  UNL1       -0.0621
     28 O         141.1003  134.1564  153.8594 O.2     1  UNL1       -0.3522
     29 C         141.8806  133.3090  154.8202 C.ar    1  UNL1        0.1781
     30 C         141.6601  131.9196  155.3408 C.ar    1  UNL1        0.0402
     31 C         142.6310  131.3208  156.3148 C.ar    1  UNL1        0.0071
     32 C         143.8224  132.1114  156.7683 C.ar    1  UNL1        0.0717
     33 C         144.0428  133.5008  156.2477 C.ar    1  UNL1        0.0099
     34 C         143.0719  134.0996  155.2737 C.ar    1  UNL1        0.0717
     35 C         144.7933  131.5126  157.7423 C.3     1  UNL1        0.4186
     36 F         145.7642  130.9138  158.7164 F       1  UNL1       -0.1659
     37 F         144.4076  130.1381  157.2819 F       1  UNL1       -0.1659
     38 F         145.1791  132.8870  158.2027 F       1  UNL1       -0.1659
@<TRIPOS>BOND
     1    21    22    1
     2    22    15    1
     3    15    16   ar
     4    16    17   ar
     5    17    18   ar
     6     9    18    1
     7     9    10    1
     8    10    11    1
     9    11    12    1
    10    12     5    1
    11     5     6    1
    12     6     7    1
    13     7     1    1
    14     1     2   am
    15     2     3    2
    16     2    23    1
    17    23    24    1
    18    24    26    1
    19    26    27   ar
    20    27    28   ar
    21    28    29   ar
    22    29    30   ar
    23    30    31   ar
    24    31    32   ar
    25    32    35    1
    26    35    36    1
    27    35    37    1
    28    35    38    1
    29    32    33   ar
    30    33    34   ar
    31     7     8    1
    32    12    13    1
    33    13    14    1
    34    18    19   ar
    35    19    20   ar
    36    20    15   ar
    37    14     9    1
    38     8     5    1
    39    34    26   ar
    40    34    29   ar
    41     1     4    1
    42    24    25    1
@<TRIPOS>MOLECULE
*****
 38 42 0 0 0
SMALL
GASTEIGER

@<TRIPOS>ATOM
      1 N         143.0433  143.9108  161.0600 N.am    1  UNL1       -0.3018
      2 C         143.1177  143.8633  162.5574 C.2     1  UNL1        0.2425
      3 O         143.1795  142.5414  163.2637 O.2     1  UNL1       -0.2733
      4 H         143.0028  144.7783  160.5964 H       1  UNL1        0.1495
      5 N         143.0124  140.8340  159.1503 N.3     1  UNL1       -0.2711
      6 C         141.9614  141.7249  159.7432 C.3     1  UNL1        0.0933
      7 C         143.0305  142.6364  160.2690 C.3     1  UNL1        0.1035
      8 C         144.0815  141.7455  159.6760 C.3     1  UNL1        0.0933
      9 C         142.9742  137.0108  156.7772 C.3     1  UNL1        0.0240
     10 C         142.6069  136.9947  158.2315 C.3     1  UNL1        0.0058
     11 C         142.6196  138.2690  159.0224 C.3     1  UNL1        0.0163
     12 C         142.9997  139.5596  158.3592 C.3     1  UNL1        0.0576
     13 C         143.3670  139.5758  156.9050 C.3     1  UNL1        0.0163
     14 C         143.3543  138.3014  156.1140 C.3     1  UNL1        0.0058
     15 C         142.9358  133.1875  154.4042 C.ar    1  UNL1        0.2250
     16 C         142.2249  134.4010  153.8827 C.ar    1  UNL1        0.0574
     17 C         142.2378  135.6755  154.6738 C.ar    1  UNL1        0.0020
     18 C         142.9615  135.7364  155.9863 C.ar    1  UNL1       -0.0031
     19 C         143.6723  134.5228  156.5077 C.ar    1  UNL1        0.0977
     20 N         143.6595  133.2484  155.7167 N.ar    1  UNL1       -0.2105
     21 C         143.6814  130.7166  154.1064 C.3     1  UNL1        0.2542
     22 O         142.9230  131.9131  153.6132 O.3     1  UNL1       -0.4561
     23 C         143.1305  145.1377  163.3484 C.3     1  UNL1        0.1747
     24 N         141.8511  145.8822  163.5917 N.pl3   1  UNL1       -0.3080
     25 H         141.8715  146.7701  164.0165 H       1  UNL1        0.1487
     26 C         140.5409  145.2738  163.1879 C.ar    1  UNL1        0.1708
     27 N         139.6663  145.7329  162.0590 N.ar    1  UNL1       -0.0621
     28 O         138.4601  144.8423  162.0155 O.2     1  UNL1       -0.3522
     29 C         138.5891  143.8329  163.1175 C.ar    1  UNL1        0.1781
     30 C         137.7017  142.7054  163.5548 C.ar    1  UNL1        0.0402
     31 C         138.1004  141.8446  164.7167 C.ar    1  UNL1        0.0071
     32 C         139.3864  142.1113  165.4413 C.ar    1  UNL1        0.0717
     33 C         140.2738  143.2388  165.0040 C.ar    1  UNL1        0.0099
     34 C         139.8751  144.0996  163.8421 C.ar    1  UNL1        0.0717
     35 C         139.7850  141.2504  166.6033 C.3     1  UNL1        0.4186
     36 F         140.1836  140.3896  167.7652 F       1  UNL1       -0.1659
     37 F         140.5476  142.3996  167.1931 F       1  UNL1       -0.1659
     38 F         139.0225  140.1013  166.0134 F       1  UNL1       -0.1659
@<TRIPOS>BOND
     1    21    22    1
     2    22    15    1
     3    15    16   ar
     4    16    17   ar
     5    17    18   ar
     6     9    18    1
     7     9    10    1
     8    10    11    1
     9    11    12    1
    10    12     5    1
    11     5     6    1
    12     6     7    1
    13     7     1    1
    14     1     2   am
    15     2     3    2
    16     2    23    1
    17    23    24    1
    18    24    26    1
    19    26    27   ar
    20    27    28   ar
    21    28    29   ar
    22    29    30   ar
    23    30    31   ar
    24    31    32   ar
    25    32    35    1
    26    35    36    1
    27    35    37    1
    28    35    38    1
    29    32    33   ar
    30    33    34   ar
    31     7     8    1
    32    12    13    1
    33    13    14    1
    34    18    19   ar
    35    19    20   ar
    36    20    15   ar
    37    14     9    1
    38     8     5    1
    39    34    26   ar
    40    34    29   ar
    41     1     4    1
    42    24    25    1
@<TRIPOS>MOLECULE
*****
 38 42 0 0 0
SMALL
GASTEIGER

@<TRIPOS>ATOM
      1 N         142.9358  138.0684  156.6172 N.am    1  UNL1       -0.3018
      2 C         141.6755  138.1561  155.8087 C.2     1  UNL1        0.2425
      3 O         140.3956  138.5903  156.4593 O.2     1  UNL1       -0.2733
      4 H         143.7759  137.7834  156.1901 H       1  UNL1        0.1495
      5 N         142.8886  138.9050  160.1403 N.3     1  UNL1       -0.2711
      6 C         142.9827  139.6892  158.8651 C.3     1  UNL1        0.0933
      7 C         142.9163  138.4149  158.0765 C.3     1  UNL1        0.1035
      8 C         142.8222  137.6308  159.3517 C.3     1  UNL1        0.0933
      9 C         142.8299  139.9445  164.5182 C.3     1  UNL1        0.0240
     10 C         141.5507  139.9229  163.7351 C.3     1  UNL1        0.0058
     11 C         141.5702  139.5764  162.2759 C.3     1  UNL1        0.0163
     12 C         142.8691  139.2515  161.5996 C.3     1  UNL1        0.0576
     13 C         144.1483  139.2731  162.3825 C.3     1  UNL1        0.0163
     14 C         144.1287  139.6195  163.8418 C.3     1  UNL1        0.0058
     15 C         142.7708  140.9837  168.8961 C.ar    1  UNL1        0.2250
     16 C         142.5981  139.5586  168.4612 C.ar    1  UNL1        0.0574
     17 C         142.6178  139.2122  167.0019 C.ar    1  UNL1        0.0020
     18 C         142.8102  140.2910  165.9774 C.ar    1  UNL1       -0.0031
     19 C         142.9830  141.7161  166.4124 C.ar    1  UNL1        0.0977
     20 N         142.9633  142.0625  167.8717 N.ar    1  UNL1       -0.2105
     21 C         141.4466  141.3970  171.0929 C.3     1  UNL1        0.2542
     22 O         142.7511  141.3301  170.3554 O.3     1  UNL1       -0.4561
     23 C         141.6951  137.8096  154.3493 C.3     1  UNL1        0.1747
     24 N         142.5871  136.7113  153.8511 N.pl3   1  UNL1       -0.3080
     25 H         143.5001  136.9186  153.5468 H       1  UNL1        0.1487
     26 C         142.0879  135.2972  153.8167 C.ar    1  UNL1        0.1708
     27 N         141.0361  134.7557  152.8945 N.ar    1  UNL1       -0.0621
     28 O         140.8511  133.3002  153.2063 O.2     1  UNL1       -0.3522
     29 C         141.7885  132.9421  154.3212 C.ar    1  UNL1        0.1781
     30 C         142.0448  131.6517  155.0415 C.ar    1  UNL1        0.0402
     31 C         143.0655  131.5955  156.1392 C.ar    1  UNL1        0.0071
     32 C         143.8300  132.8297  156.5165 C.ar    1  UNL1        0.0717
     33 C         143.5737  134.1201  155.7961 C.ar    1  UNL1        0.0099
     34 C         142.5529  134.1764  154.6984 C.ar    1  UNL1        0.0717
     35 C         144.8508  132.7734  157.6142 C.3     1  UNL1        0.4186
     36 F         145.8715  132.7171  158.7118 F       1  UNL1       -0.1659
     37 F         144.1384  133.8803  158.3334 F       1  UNL1       -0.1659
     38 F         145.5631  131.6666  156.8949 F       1  UNL1       -0.1659
@<TRIPOS>BOND
     1    21    22    1
     2    22    15    1
     3    15    16   ar
     4    16    17   ar
     5    17    18   ar
     6     9    18    1
     7     9    10    1
     8    10    11    1
     9    11    12    1
    10    12     5    1
    11     5     6    1
    12     6     7    1
    13     7     1    1
    14     1     2   am
    15     2     3    2
    16     2    23    1
    17    23    24    1
    18    24    26    1
    19    26    27   ar
    20    27    28   ar
    21    28    29   ar
    22    29    30   ar
    23    30    31   ar
    24    31    32   ar
    25    32    35    1
    26    35    36    1
    27    35    37    1
    28    35    38    1
    29    32    33   ar
    30    33    34   ar
    31     7     8    1
    32    12    13    1
    33    13    14    1
    34    18    19   ar
    35    19    20   ar
    36    20    15   ar
    37    14     9    1
    38     8     5    1
    39    34    26   ar
    40    34    29   ar
    41     1     4    1
    42    24    25    1
@<TRIPOS>MOLECULE
*****
 38 42 0 0 0
SMALL
GASTEIGER

@<TRIPOS>ATOM
      1 N         141.4814  143.8745  160.5129 N.am    1  UNL1       -0.3018
      2 C         140.1282  144.4410  160.8259 C.2     1  UNL1        0.2425
      3 O         138.8912  143.6852  160.4405 O.2     1  UNL1       -0.2733
      4 H         142.2933  144.3706  160.7659 H       1  UNL1        0.1495
      5 N         141.7616  140.6819  158.8268 N.3     1  UNL1       -0.2711
      6 C         141.1497  141.1519  160.1131 C.3     1  UNL1        0.0933
      7 C         141.5975  142.5521  159.8144 C.3     1  UNL1        0.1035
      8 C         142.2093  142.0820  158.5282 C.3     1  UNL1        0.0933
      9 C         142.1099  136.7147  156.7314 C.3     1  UNL1        0.0240
     10 C         141.2515  137.7981  156.1486 C.3     1  UNL1        0.0058
     11 C         141.1354  139.1204  156.8470 C.3     1  UNL1        0.0163
     12 C         141.8777  139.3595  158.1283 C.3     1  UNL1        0.0576
     13 C         142.7361  138.2763  158.7112 C.3     1  UNL1        0.0163
     14 C         142.8522  136.9539  158.0127 C.3     1  UNL1        0.0058
     15 C         142.4581  132.7477  154.6360 C.ar    1  UNL1        0.2250
     16 C         143.5026  133.1661  155.6280 C.ar    1  UNL1        0.0574
     17 C         143.3864  134.4885  156.3264 C.ar    1  UNL1        0.0020
     18 C         142.2259  135.3924  156.0329 C.ar    1  UNL1       -0.0031
     19 C         141.1815  134.9740  155.0409 C.ar    1  UNL1        0.0977
     20 N         141.2976  133.6516  154.3424 N.ar    1  UNL1       -0.2105
     21 C         143.8190  130.6025  154.0915 C.3     1  UNL1        0.2542
     22 O         142.5743  131.4253  153.9375 O.3     1  UNL1       -0.4561
     23 C         140.0121  145.7634  161.5243 C.3     1  UNL1        0.1747
     24 N         140.6709  145.9685  162.8563 N.pl3   1  UNL1       -0.3080
     25 H         141.2040  146.7794  163.0222 H       1  UNL1        0.1487
     26 C         140.5174  144.9380  163.9355 C.ar    1  UNL1        0.1708
     27 N         139.3289  144.7745  164.8359 N.ar    1  UNL1       -0.0621
     28 O         139.6025  143.6256  165.7606 O.2     1  UNL1       -0.3522
     29 C         140.9602  143.0791  165.4318 C.ar    1  UNL1        0.1781
     30 C         141.7546  141.9476  166.0137 C.ar    1  UNL1        0.0402
     31 C         143.1144  141.6273  165.4677 C.ar    1  UNL1        0.0071
     32 C         143.6799  142.4384  164.3398 C.ar    1  UNL1        0.0717
     33 C         142.8855  143.5699  163.7578 C.ar    1  UNL1        0.0099
     34 C         141.5256  143.8902  164.3038 C.ar    1  UNL1        0.0717
     35 C         145.0398  142.1181  163.7938 C.3     1  UNL1        0.4186
     36 F         146.3997  141.7977  163.2478 F       1  UNL1       -0.1659
     37 F         144.9582  143.3122  162.8897 F       1  UNL1       -0.1659
     38 F         145.1214  140.9240  164.6979 F       1  UNL1       -0.1659
@<TRIPOS>BOND
     1    21    22    1
     2    22    15    1
     3    15    16   ar
     4    16    17   ar
     5    17    18   ar
     6     9    18    1
     7     9    10    1
     8    10    11    1
     9    11    12    1
    10    12     5    1
    11     5     6    1
    12     6     7    1
    13     7     1    1
    14     1     2   am
    15     2     3    2
    16     2    23    1
    17    23    24    1
    18    24    26    1
    19    26    27   ar
    20    27    28   ar
    21    28    29   ar
    22    29    30   ar
    23    30    31   ar
    24    31    32   ar
    25    32    35    1
    26    35    36    1
    27    35    37    1
    28    35    38    1
    29    32    33   ar
    30    33    34   ar
    31     7     8    1
    32    12    13    1
    33    13    14    1
    34    18    19   ar
    35    19    20   ar
    36    20    15   ar
    37    14     9    1
    38     8     5    1
    39    34    26   ar
    40    34    29   ar
    41     1     4    1
    42    24    25    1
@<TRIPOS>MOLECULE
*****
 38 42 0 0 0
SMALL
GASTEIGER

@<TRIPOS>ATOM
      1 N         141.5897  142.8854  165.9169 N.am    1  UNL1       -0.3018
      2 C         142.8901  142.4299  166.5096 C.2     1  UNL1        0.2425
      3 O         144.1282  142.3938  165.6636 O.2     1  UNL1       -0.2733
      4 H         140.7771  142.9091  166.4721 H       1  UNL1        0.1495
      5 N         141.4394  143.8982  162.4433 N.3     1  UNL1       -0.2711
      6 C         140.7990  142.8161  163.2612 C.3     1  UNL1        0.0933
      7 C         141.5274  143.3050  164.4781 C.3     1  UNL1        0.1035
      8 C         142.1677  144.3870  163.6601 C.3     1  UNL1        0.0933
      9 C         141.2526  145.1568  158.1269 C.3     1  UNL1        0.0240
     10 C         142.2113  144.0854  158.5550 C.3     1  UNL1        0.0058
     11 C         142.2735  143.6659  159.9937 C.3     1  UNL1        0.0163
     12 C         141.3771  144.3177  161.0045 C.3     1  UNL1        0.0576
     13 C         140.4185  145.3891  160.5764 C.3     1  UNL1        0.0163
     14 C         140.3563  145.8086  159.1376 C.3     1  UNL1        0.0058
     15 C         141.0660  146.4153  153.8105 C.ar    1  UNL1        0.2250
     16 C         140.0316  146.9053  154.7800 C.ar    1  UNL1        0.0574
     17 C         140.0938  146.4858  156.2188 C.ar    1  UNL1        0.0020
     18 C         141.1905  145.5763  156.6881 C.ar    1  UNL1       -0.0031
     19 C         142.2249  145.0863  155.7186 C.ar    1  UNL1        0.0977
     20 N         142.1626  145.5058  154.2798 N.ar    1  UNL1       -0.2105
     21 C         141.2178  148.2721  151.9996 C.3     1  UNL1        0.2542
     22 O         141.0037  146.8348  152.3717 O.3     1  UNL1       -0.4561
     23 C         142.9523  142.0103  167.9484 C.3     1  UNL1        0.1747
     24 N         142.5404  140.6231  168.3437 N.pl3   1  UNL1       -0.3080
     25 H         143.2199  139.9703  168.6290 H       1  UNL1        0.1487
     26 C         141.0932  140.2306  168.3042 C.ar    1  UNL1        0.1708
     27 N         140.0986  140.4168  169.4115 N.ar    1  UNL1       -0.0621
     28 O         138.7773  139.8843  168.9421 O.2     1  UNL1       -0.3522
     29 C         138.9551  139.3690  167.5447 C.ar    1  UNL1        0.1781
     30 C         137.9987  138.7326  166.5803 C.ar    1  UNL1        0.0402
     31 C         138.4736  138.3102  165.2216 C.ar    1  UNL1        0.0071
     32 C         139.9049  138.5243  164.8273 C.ar    1  UNL1        0.0717
     33 C         140.8614  139.1607  165.7917 C.ar    1  UNL1        0.0099
     34 C         140.3865  139.5831  167.1504 C.ar    1  UNL1        0.0717
     35 C         140.3798  138.1019  163.4686 C.3     1  UNL1        0.4186
     36 F         140.8547  137.6795  162.1099 F       1  UNL1       -0.1659
     37 F         139.0475  137.4671  163.2002 F       1  UNL1       -0.1659
     38 F         141.7121  138.7366  163.7369 F       1  UNL1       -0.1659
@<TRIPOS>BOND
     1    21    22    1
     2    22    15    1
     3    15    16   ar
     4    16    17   ar
     5    17    18   ar
     6     9    18    1
     7     9    10    1
     8    10    11    1
     9    11    12    1
    10    12     5    1
    11     5     6    1
    12     6     7    1
    13     7     1    1
    14     1     2   am
    15     2     3    2
    16     2    23    1
    17    23    24    1
    18    24    26    1
    19    26    27   ar
    20    27    28   ar
    21    28    29   ar
    22    29    30   ar
    23    30    31   ar
    24    31    32   ar
    25    32    35    1
    26    35    36    1
    27    35    37    1
    28    35    38    1
    29    32    33   ar
    30    33    34   ar
    31     7     8    1
    32    12    13    1
    33    13    14    1
    34    18    19   ar
    35    19    20   ar
    36    20    15   ar
    37    14     9    1
    38     8     5    1
    39    34    26   ar
    40    34    29   ar
    41     1     4    1
    42    24    25    1
@<TRIPOS>MOLECULE
*****
 38 42 0 0 0
SMALL
GASTEIGER

@<TRIPOS>ATOM
      1 N         139.6665  142.8210  159.0316 N.am    1  UNL1       -0.3018
      2 C         139.4280  142.0442  160.2924 C.2     1  UNL1        0.2425
      3 O         140.5283  141.2105  160.8792 O.2     1  UNL1       -0.2733
      4 H         138.9443  143.3682  158.6465 H       1  UNL1        0.1495
      5 N         142.8987  142.6835  157.4044 N.3     1  UNL1       -0.2711
      6 C         141.7797  141.7091  157.6244 C.3     1  UNL1        0.0933
      7 C         141.0053  142.7641  158.3576 C.3     1  UNL1        0.1035
      8 C         142.1243  143.7384  158.1375 C.3     1  UNL1        0.0933
      9 C         146.9152  142.5128  155.3823 C.3     1  UNL1        0.0240
     10 C         146.8115  142.2997  156.8635 C.3     1  UNL1        0.0058
     11 C         145.4727  142.3566  157.5375 C.3     1  UNL1        0.0163
     12 C         144.2375  142.6266  156.7303 C.3     1  UNL1        0.0576
     13 C         144.3412  142.8396  155.2492 C.3     1  UNL1        0.0163
     14 C         145.6800  142.7827  154.5752 C.3     1  UNL1        0.0058
     15 C         150.9319  142.3418  153.3608 C.ar    1  UNL1        0.2250
     16 C         150.7264  141.6576  154.6797 C.ar    1  UNL1        0.0574
     17 C         149.3875  141.7146  155.3535 C.ar    1  UNL1        0.0020
     18 C         148.2540  142.4558  154.7084 C.ar    1  UNL1       -0.0031
     19 C         148.4596  143.1400  153.3895 C.ar    1  UNL1        0.0977
     20 N         149.7986  143.0830  152.7156 N.ar    1  UNL1       -0.2105
     21 C         153.3887  143.1636  153.1644 C.3     1  UNL1        0.2542
     22 O         152.2708  142.2848  152.6870 O.3     1  UNL1       -0.4561
     23 C         138.0892  142.1011  160.9664 C.3     1  UNL1        0.1747
     24 N         137.7403  143.2664  161.8443 N.pl3   1  UNL1       -0.3080
     25 H         137.0022  143.8678  161.5938 H       1  UNL1        0.1487
     26 C         138.5162  143.5155  163.1036 C.ar    1  UNL1        0.1708
     27 N         139.1208  144.8227  163.5228 N.ar    1  UNL1       -0.0621
     28 O         139.8019  144.6160  164.8432 O.2     1  UNL1       -0.3522
     29 C         139.6182  143.1812  165.2401 C.ar    1  UNL1        0.1781
     30 C         140.0719  142.4062  166.4415 C.ar    1  UNL1        0.0402
     31 C         139.7309  140.9509  166.5678 C.ar    1  UNL1        0.0071
     32 C         138.9363  140.2707  165.4927 C.ar    1  UNL1        0.0717
     33 C         138.4826  141.0458  164.2912 C.ar    1  UNL1        0.0099
     34 C         138.8236  142.5010  164.1649 C.ar    1  UNL1        0.0717
     35 C         138.5953  138.8154  165.6190 C.3     1  UNL1        0.4186
     36 F         138.2544  137.3602  165.7453 F       1  UNL1       -0.1659
     37 F         137.4745  139.1592  166.5546 F       1  UNL1       -0.1659
     38 F         139.7162  138.4716  164.6834 F       1  UNL1       -0.1659
@<TRIPOS>BOND
     1    21    22    1
     2    22    15    1
     3    15    16   ar
     4    16    17   ar
     5    17    18   ar
     6     9    18    1
     7     9    10    1
     8    10    11    1
     9    11    12    1
    10    12     5    1
    11     5     6    1
    12     6     7    1
    13     7     1    1
    14     1     2   am
    15     2     3    2
    16     2    23    1
    17    23    24    1
    18    24    26    1
    19    26    27   ar
    20    27    28   ar
    21    28    29   ar
    22    29    30   ar
    23    30    31   ar
    24    31    32   ar
    25    32    35    1
    26    35    36    1
    27    35    37    1
    28    35    38    1
    29    32    33   ar
    30    33    34   ar
    31     7     8    1
    32    12    13    1
    33    13    14    1
    34    18    19   ar
    35    19    20   ar
    36    20    15   ar
    37    14     9    1
    38     8     5    1
    39    34    26   ar
    40    34    29   ar
    41     1     4    1
    42    24    25    1
@<TRIPOS>MOLECULE
*****
 38 42 0 0 0
SMALL
GASTEIGER

@<TRIPOS>ATOM
      1 N         139.4247  140.5457  158.3057 N.am    1  UNL1       -0.3018
      2 C         139.2471  140.2854  159.7722 C.2     1  UNL1        0.2425
      3 O         140.4369  140.2976  160.6856 O.2     1  UNL1       -0.2733
      4 H         138.6438  140.5377  157.7062 H       1  UNL1        0.1495
      5 N         142.7259  141.2039  156.9704 N.3     1  UNL1       -0.2711
      6 C         142.0169  139.9911  157.4963 C.3     1  UNL1        0.0933
      7 C         140.7921  140.8184  157.7526 C.3     1  UNL1        0.1035
      8 C         141.5011  142.0311  157.2267 C.3     1  UNL1        0.0933
      9 C         146.8280  142.0219  155.3111 C.3     1  UNL1        0.0240
     10 C         146.5427  142.2706  156.7626 C.3     1  UNL1        0.0058
     11 C         145.1754  141.9979  157.3156 C.3     1  UNL1        0.0163
     12 C         144.0933  141.4766  156.4173 C.3     1  UNL1        0.0576
     13 C         144.3785  141.2278  154.9658 C.3     1  UNL1        0.0163
     14 C         145.7459  141.5005  154.4127 C.3     1  UNL1        0.0058
     15 C         150.9304  142.8398  153.6523 C.ar    1  UNL1        0.2250
     16 C         150.7630  141.9005  154.8097 C.ar    1  UNL1        0.0574
     17 C         149.3955  141.6279  155.3626 C.ar    1  UNL1        0.0020
     18 C         148.1954  142.2946  154.7581 C.ar    1  UNL1       -0.0031
     19 C         148.3629  143.2339  153.6007 C.ar    1  UNL1        0.0977
     20 N         149.7303  143.5065  153.0478 N.ar    1  UNL1       -0.2105
     21 C         152.9423  144.4492  153.3177 C.3     1  UNL1        0.2542
     22 O         152.2978  143.1124  153.0994 O.3     1  UNL1       -0.4561
     23 C         137.8798  140.0127  160.3253 C.3     1  UNL1        0.1747
     24 N         137.5299  140.4585  161.7142 N.pl3   1  UNL1       -0.3080
     25 H         137.0535  139.8478  162.3219 H       1  UNL1        0.1487
     26 C         137.9059  141.8349  162.1771 C.ar    1  UNL1        0.1708
     27 N         137.7128  143.1075  161.4070 N.ar    1  UNL1       -0.0621
     28 O         138.2286  144.2394  162.2454 O.2     1  UNL1       -0.3522
     29 C         138.7403  143.6663  163.5337 C.ar    1  UNL1        0.1781
     30 C         139.3622  144.3056  164.7397 C.ar    1  UNL1        0.0402
     31 C         139.7846  143.4588  165.9035 C.ar    1  UNL1        0.0071
     32 C         139.5852  141.9727  165.8613 C.ar    1  UNL1        0.0717
     33 C         138.9633  141.3334  164.6553 C.ar    1  UNL1        0.0099
     34 C         138.5409  142.1802  163.4915 C.ar    1  UNL1        0.0717
     35 C         140.0076  141.1260  167.0252 C.3     1  UNL1        0.4186
     36 F         140.4300  140.2792  168.1890 F       1  UNL1       -0.1659
     37 F         140.2455  142.3633  167.8391 F       1  UNL1       -0.1659
     38 F         139.7697  139.8887  166.2113 F       1  UNL1       -0.1659
@<TRIPOS>BOND
     1    21    22    1
     2    22    15    1
     3    15    16   ar
     4    16    17   ar
     5    17    18   ar
     6     9    18    1
     7     9    10    1
     8    10    11    1
     9    11    12    1
    10    12     5    1
    11     5     6    1
    12     6     7    1
    13     7     1    1
    14     1     2   am
    15     2     3    2
    16     2    23    1
    17    23    24    1
    18    24    26    1
    19    26    27   ar
    20    27    28   ar
    21    28    29   ar
    22    29    30   ar
    23    30    31   ar
    24    31    32   ar
    25    32    35    1
    26    35    36    1
    27    35    37    1
    28    35    38    1
    29    32    33   ar
    30    33    34   ar
    31     7     8    1
    32    12    13    1
    33    13    14    1
    34    18    19   ar
    35    19    20   ar
    36    20    15   ar
    37    14     9    1
    38     8     5    1
    39    34    26   ar
    40    34    29   ar
    41     1     4    1
    42    24    25    1
@<TRIPOS>MOLECULE
*****
 38 42 0 0 0
SMALL
GASTEIGER

@<TRIPOS>ATOM
      1 N         139.7793  139.6139  163.7390 N.am    1  UNL1       -0.3018
      2 C         138.9902  139.9099  164.9797 C.2     1  UNL1        0.2425
      3 O         138.2205  141.1926  165.0909 O.2     1  UNL1       -0.2733
      4 H         140.2845  138.7720  163.6660 H       1  UNL1        0.1495
      5 N         139.8265  141.9961  161.0118 N.3     1  UNL1       -0.2711
      6 C         140.8671  141.3757  161.8963 C.3     1  UNL1        0.0933
      7 C         139.7988  140.6006  162.6094 C.3     1  UNL1        0.1035
      8 C         138.7583  141.2210  161.7248 C.3     1  UNL1        0.0933
      9 C         139.8849  144.9563  157.6230 C.3     1  UNL1        0.0240
     10 C         139.3983  143.5569  157.3883 C.3     1  UNL1        0.0058
     11 C         139.3789  142.5702  158.5179 C.3     1  UNL1        0.0163
     12 C         139.8460  142.9828  159.8822 C.3     1  UNL1        0.0576
     13 C         140.3325  144.3821  160.1170 C.3     1  UNL1        0.0163
     14 C         140.3520  145.3689  158.9874 C.3     1  UNL1        0.0058
     15 C         139.9433  147.9160  154.2339 C.ar    1  UNL1        0.2250
     16 C         140.7063  146.6297  154.1195 C.ar    1  UNL1        0.0574
     17 C         140.6868  145.6431  155.2492 C.ar    1  UNL1        0.0020
     18 C         139.9043  145.9429  156.4934 C.ar    1  UNL1       -0.0031
     19 C         139.1414  147.2293  156.6078 C.ar    1  UNL1        0.0977
     20 N         139.1609  148.2158  155.4780 N.ar    1  UNL1       -0.2105
     21 C         139.5501  150.3247  153.3431 C.3     1  UNL1        0.2542
     22 O         139.9628  148.9026  153.1042 O.3     1  UNL1       -0.4561
     23 C         138.9707  138.9232  166.1093 C.3     1  UNL1        0.1747
     24 N         138.3095  139.2818  167.4072 N.pl3   1  UNL1       -0.3080
     25 H         137.3482  139.1108  167.5336 H       1  UNL1        0.1487
     26 C         139.1129  139.9010  168.5122 C.ar    1  UNL1        0.1708
     27 N         138.7563  139.8991  169.9692 N.ar    1  UNL1       -0.0621
     28 O         139.8370  140.6277  170.7118 O.2     1  UNL1       -0.3522
     29 C         140.8614  141.0799  169.7137 C.ar    1  UNL1        0.1781
     30 C         142.1438  141.8425  169.8671 C.ar    1  UNL1        0.0402
     31 C         142.9788  142.1561  168.6610 C.ar    1  UNL1        0.0071
     32 C         142.5312  141.7069  167.3016 C.ar    1  UNL1        0.0717
     33 C         141.2488  140.9442  167.1483 C.ar    1  UNL1        0.0099
     34 C         140.4138  140.6307  168.3543 C.ar    1  UNL1        0.0717
     35 C         143.3662  142.0205  166.0956 C.3     1  UNL1        0.4186
     36 F         144.2012  142.3340  164.8895 F       1  UNL1       -0.1659
     37 F         144.0966  143.0735  166.8750 F       1  UNL1       -0.1659
     38 F         142.6358  140.9674  165.3161 F       1  UNL1       -0.1659
@<TRIPOS>BOND
     1    21    22    1
     2    22    15    1
     3    15    16   ar
     4    16    17   ar
     5    17    18   ar
     6     9    18    1
     7     9    10    1
     8    10    11    1
     9    11    12    1
    10    12     5    1
    11     5     6    1
    12     6     7    1
    13     7     1    1
    14     1     2   am
    15     2     3    2
    16     2    23    1
    17    23    24    1
    18    24    26    1
    19    26    27   ar
    20    27    28   ar
    21    28    29   ar
    22    29    30   ar
    23    30    31   ar
    24    31    32   ar
    25    32    35    1
    26    35    36    1
    27    35    37    1
    28    35    38    1
    29    32    33   ar
    30    33    34   ar
    31     7     8    1
    32    12    13    1
    33    13    14    1
    34    18    19   ar
    35    19    20   ar
    36    20    15   ar
    37    14     9    1
    38     8     5    1
    39    34    26   ar
    40    34    29   ar
    41     1     4    1
    42    24    25    1
