@<TRIPOS>MOLECULE
*****
 29 31 0 0 0
SMALL
GASTEIGER

@<TRIPOS>ATOM
      1 C         141.5741  139.9452  164.7306 C.2     1  UNL1        0.0806
      2 N         142.8455  140.4406  164.1077 N.2     1  UNL1       -0.2021
      3 C         143.2093  140.0246  162.7133 C.2     1  UNL1        0.3040
      4 N         142.3017  139.1130  161.9416 N.2     1  UNL1       -0.0109
      5 C         141.0302  138.6176  162.5645 C.2     1  UNL1        0.3639
      6 N         139.9462  137.7165  162.0520 N.2     1  UNL1       -0.0335
      7 C         138.9124  137.5757  163.1297 C.2     1  UNL1        0.2424
      8 C         139.3575  138.3897  164.3083 C.2     1  UNL1        0.1101
      9 C         140.6665  139.0337  163.9590 C.3     1  UNL1        0.1876
     10 C         140.4828  141.1935  168.9140 C.ar    1  UNL1        0.1732
     11 C         139.9645  141.9704  167.7402 C.ar    1  UNL1        0.0515
     12 C         140.3283  141.5544  166.3457 C.ar    1  UNL1        0.0620
     13 CL        139.8100  142.3313  165.1719 Cl      1  UNL1       -0.0821
     14 C         141.2103  140.3613  166.1250 C.ar    1  UNL1        0.0284
     15 C         141.7286  139.5844  167.2989 C.ar    1  UNL1        0.0421
     16 C         141.3649  140.0004  168.6933 C.ar    1  UNL1        0.1725
     17 C         139.8531  143.0537  170.6150 C.3     1  UNL1        0.2526
     18 O         140.1190  141.6096  170.3084 O.3     1  UNL1       -0.4683
     19 O         141.8831  139.2235  169.8671 O.3     1  UNL1       -0.4684
     20 C         143.0323  139.7561  170.6706 C.3     1  UNL1        0.2526
     21 C         138.6227  138.5344  165.6079 C.1     1  UNL1        0.1009
     22 N         137.8879  138.6791  166.9076 N.1     1  UNL1       -0.1910
     23 S         144.4808  140.5200  162.0903 S.3     1  UNL1       -0.0383
     24 C         145.1283  141.7726  162.6021 C.3     1  UNL1        0.1522
     25 C         144.4040  143.0829  162.5097 C.2     1  UNL1        0.2373
     26 O         143.9539  143.5985  161.1749 O.2     1  UNL1       -0.2739
     27 N         144.1297  143.8775  163.7520 N.am    1  UNL1       -0.2753
     28 C         143.4054  145.1879  163.6594 C.3     1  UNL1        0.1149
     29 C         144.5798  143.3619  165.0867 C.3     1  UNL1        0.1149
@<TRIPOS>BOND
     1    17    18    1
     2    18    10    1
     3    10    11   ar
     4    11    12   ar
     5    12    13    1
     6    12    14   ar
     7    14     1    1
     8     1     2    2
     9     2     3    1
    10     3    23    1
    11    23    24    1
    12    24    25    1
    13    25    26    2
    14    25    27   am
    15    27    28    1
    16    27    29    1
    17     3     4    2
    18     4     5    1
    19     5     6    2
    20     6     7    1
    21     7     8    2
    22     8    21    1
    23    21    22    3
    24     8     9    1
    25    14    15   ar
    26    15    16   ar
    27    16    19    1
    28    19    20    1
    29    16    10   ar
    30     9     1    1
    31     9     5    1
@<TRIPOS>MOLECULE
*****
 29 31 0 0 0
SMALL
GASTEIGER

@<TRIPOS>ATOM
      1 C         140.5396  142.2420  165.1500 C.2     1  UNL1        0.0806
      2 N         141.4403  143.3788  164.7674 N.2     1  UNL1       -0.2021
      3 C         141.1914  144.1386  163.4984 C.2     1  UNL1        0.3040
      4 N         140.0417  143.7616  162.6117 N.2     1  UNL1       -0.0109
      5 C         139.1409  142.6248  162.9942 C.2     1  UNL1        0.3639
      6 N         137.9381  142.0284  162.3252 N.2     1  UNL1       -0.0335
      7 C         137.4437  140.9000  163.1809 C.2     1  UNL1        0.2424
      8 C         138.3410  140.7990  164.3788 C.2     1  UNL1        0.1101
      9 C         139.3899  141.8650  164.2634 C.3     1  UNL1        0.1876
     10 C         141.2865  139.9626  168.9574 C.ar    1  UNL1        0.1732
     11 C         141.9998  139.5718  167.6971 C.ar    1  UNL1        0.0515
     12 C         141.7509  140.3316  166.4279 C.ar    1  UNL1        0.0620
     13 CL        142.4642  139.9408  165.1676 Cl      1  UNL1       -0.0821
     14 C         140.7886  141.4822  166.4191 C.ar    1  UNL1        0.0284
     15 C         140.0753  141.8731  167.6795 C.ar    1  UNL1        0.0421
     16 C         140.3242  141.1133  168.9486 C.ar    1  UNL1        0.1725
     17 C         142.7595  138.3461  170.3600 C.3     1  UNL1        0.2526
     18 O         141.5355  139.2029  170.2265 O.3     1  UNL1       -0.4683
     19 O         139.6109  141.5041  170.2089 O.3     1  UNL1       -0.4684
     20 C         139.7615  142.8925  170.7563 C.3     1  UNL1        0.2526
     21 C         138.2119  139.8063  165.4958 C.1     1  UNL1        0.1009
     22 N         138.0828  138.8136  166.6129 N.1     1  UNL1       -0.1910
     23 S         142.0922  145.2755  163.1158 S.3     1  UNL1       -0.0383
     24 C         143.5792  145.1323  163.2509 C.3     1  UNL1        0.1522
     25 C         144.2581  143.8807  162.7792 C.2     1  UNL1        0.2373
     26 O         144.3586  143.5897  161.3112 O.2     1  UNL1       -0.2739
     27 N         144.8366  142.9202  163.7756 N.am    1  UNL1       -0.2753
     28 C         145.5155  141.6685  163.3037 C.3     1  UNL1        0.1149
     29 C         144.7361  143.2112  165.2436 C.3     1  UNL1        0.1149
@<TRIPOS>BOND
     1    17    18    1
     2    18    10    1
     3    10    11   ar
     4    11    12   ar
     5    12    13    1
     6    12    14   ar
     7    14     1    1
     8     1     2    2
     9     2     3    1
    10     3    23    1
    11    23    24    1
    12    24    25    1
    13    25    26    2
    14    25    27   am
    15    27    28    1
    16    27    29    1
    17     3     4    2
    18     4     5    1
    19     5     6    2
    20     6     7    1
    21     7     8    2
    22     8    21    1
    23    21    22    3
    24     8     9    1
    25    14    15   ar
    26    15    16   ar
    27    16    19    1
    28    19    20    1
    29    16    10   ar
    30     9     1    1
    31     9     5    1
@<TRIPOS>MOLECULE
*****
 29 31 0 0 0
SMALL
GASTEIGER

@<TRIPOS>ATOM
      1 C         141.9292  142.1422  164.9558 C.2     1  UNL1        0.0806
      2 N         141.2928  143.4363  164.5432 N.2     1  UNL1       -0.2021
      3 C         141.6660  144.0728  163.2372 C.2     1  UNL1        0.3040
      4 N         142.6755  143.4151  162.3437 N.2     1  UNL1       -0.0109
      5 C         143.3119  142.1210  162.7563 C.2     1  UNL1        0.3639
      6 N         144.3310  141.2459  162.0887 N.2     1  UNL1       -0.0335
      7 C         144.5877  140.0687  162.9821 C.2     1  UNL1        0.2424
      8 C         143.7273  140.2162  164.2019 C.2     1  UNL1        0.1101
      9 C         142.9388  141.4845  164.0623 C.3     1  UNL1        0.1876
     10 C         140.8097  140.2329  168.8739 C.ar    1  UNL1        0.1732
     11 C         142.0462  141.0765  168.7769 C.ar    1  UNL1        0.0515
     12 C         142.4194  141.7130  167.4708 C.ar    1  UNL1        0.0620
     13 CL        143.6559  142.5566  167.3738 Cl      1  UNL1       -0.0821
     14 C         141.5561  141.5058  166.2618 C.ar    1  UNL1        0.0284
     15 C         140.3195  140.6622  166.3588 C.ar    1  UNL1        0.0421
     16 C         139.9464  140.0258  167.6648 C.ar    1  UNL1        0.1725
     17 C         140.4560  140.4071  171.4419 C.3     1  UNL1        0.2526
     18 O         140.4365  139.5965  170.1798 O.3     1  UNL1       -0.4683
     19 O         138.7099  139.1821  167.7618 O.3     1  UNL1       -0.4684
     20 C         138.0396  138.6875  166.5144 C.3     1  UNL1        0.2526
     21 C         143.6661  139.2626  165.3582 C.1     1  UNL1        0.1009
     22 N         143.6049  138.3091  166.5145 N.1     1  UNL1       -0.1910
     23 S         141.0295  145.3669  162.8246 S.3     1  UNL1       -0.0383
     24 C         139.5724  145.4069  162.4709 C.3     1  UNL1        0.1522
     25 C         138.8374  144.1334  162.1744 C.2     1  UNL1        0.2373
     26 O         138.9334  143.5116  160.8127 O.2     1  UNL1       -0.2739
     27 N         138.0064  143.4816  163.2396 N.am    1  UNL1       -0.2753
     28 C         137.2714  142.2080  162.9429 C.3     1  UNL1        0.1149
     29 C         137.9104  144.1033  164.6013 C.3     1  UNL1        0.1149
@<TRIPOS>BOND
     1    17    18    1
     2    18    10    1
     3    10    11   ar
     4    11    12   ar
     5    12    13    1
     6    12    14   ar
     7    14     1    1
     8     1     2    2
     9     2     3    1
    10     3    23    1
    11    23    24    1
    12    24    25    1
    13    25    26    2
    14    25    27   am
    15    27    28    1
    16    27    29    1
    17     3     4    2
    18     4     5    1
    19     5     6    2
    20     6     7    1
    21     7     8    2
    22     8    21    1
    23    21    22    3
    24     8     9    1
    25    14    15   ar
    26    15    16   ar
    27    16    19    1
    28    19    20    1
    29    16    10   ar
    30     9     1    1
    31     9     5    1
@<TRIPOS>MOLECULE
*****
 29 31 0 0 0
SMALL
GASTEIGER

@<TRIPOS>ATOM
      1 C         142.0855  142.1243  164.8171 C.2     1  UNL1        0.0806
      2 N         141.4176  143.4259  164.4860 N.2     1  UNL1       -0.2021
      3 C         141.7097  144.1085  163.1827 C.2     1  UNL1        0.3040
      4 N         142.6697  143.4895  162.2104 N.2     1  UNL1       -0.0109
      5 C         143.3375  142.1879  162.5415 C.2     1  UNL1        0.3639
      6 N         144.3216  141.3442  161.7867 N.2     1  UNL1       -0.0335
      7 C         144.6377  140.1401  162.6235 C.2     1  UNL1        0.2424
      8 C         143.8490  140.2397  163.8955 C.2     1  UNL1        0.1101
      9 C         143.0454  141.5052  163.8448 C.3     1  UNL1        0.1876
     10 C         141.2092  140.0765  168.7272 C.ar    1  UNL1        0.1732
     11 C         140.2938  139.8790  167.5555 C.ar    1  UNL1        0.0515
     12 C         140.5859  140.5616  166.2521 C.ar    1  UNL1        0.0620
     13 CL        139.6705  140.3641  165.0803 Cl      1  UNL1       -0.0821
     14 C         141.7934  141.4417  166.1204 C.ar    1  UNL1        0.0284
     15 C         142.7088  141.6392  167.2923 C.ar    1  UNL1        0.0421
     16 C         142.4168  140.9567  168.5955 C.ar    1  UNL1        0.1725
     17 C         140.1212  140.1023  171.0863 C.3     1  UNL1        0.2526
     18 O         140.9172  139.3939  170.0305 O.3     1  UNL1       -0.4683
     19 O         143.3322  141.1542  169.7673 O.3     1  UNL1       -0.4684
     20 C         144.0320  142.4669  169.9594 C.3     1  UNL1        0.2526
     21 C         143.8616  139.2478  165.0207 C.1     1  UNL1        0.1009
     22 N         143.8743  138.2559  166.1458 N.1     1  UNL1       -0.1910
     23 S         141.0418  145.4103  162.8516 S.3     1  UNL1       -0.0383
     24 C         139.5872  145.4352  162.4862 C.3     1  UNL1        0.1522
     25 C         138.8615  144.1522  162.2085 C.2     1  UNL1        0.2373
     26 O         138.9440  143.5229  160.8493 O.2     1  UNL1       -0.2739
     27 N         138.0533  143.4984  163.2898 N.am    1  UNL1       -0.2753
     28 C         137.3276  142.2153  163.0120 C.3     1  UNL1        0.1149
     29 C         137.9708  144.1277  164.6490 C.3     1  UNL1        0.1149
@<TRIPOS>BOND
     1    17    18    1
     2    18    10    1
     3    10    11   ar
     4    11    12   ar
     5    12    13    1
     6    12    14   ar
     7    14     1    1
     8     1     2    2
     9     2     3    1
    10     3    23    1
    11    23    24    1
    12    24    25    1
    13    25    26    2
    14    25    27   am
    15    27    28    1
    16    27    29    1
    17     3     4    2
    18     4     5    1
    19     5     6    2
    20     6     7    1
    21     7     8    2
    22     8    21    1
    23    21    22    3
    24     8     9    1
    25    14    15   ar
    26    15    16   ar
    27    16    19    1
    28    19    20    1
    29    16    10   ar
    30     9     1    1
    31     9     5    1
@<TRIPOS>MOLECULE
*****
 29 31 0 0 0
SMALL
GASTEIGER

@<TRIPOS>ATOM
      1 C         139.5791  141.6212  164.1328 C.2     1  UNL1        0.0806
      2 N         139.5991  143.1092  163.9446 N.2     1  UNL1       -0.2021
      3 C         138.8896  143.7270  162.7764 C.2     1  UNL1        0.3040
      4 N         138.1601  142.8568  161.7963 N.2     1  UNL1       -0.0109
      5 C         138.1401  141.3688  161.9844 C.2     1  UNL1        0.3639
      6 N         137.5093  140.2649  161.1885 N.2     1  UNL1       -0.0335
      7 C         137.8291  138.9648  161.8649 C.2     1  UNL1        0.2424
      8 C         138.6574  139.2652  163.0789 C.2     1  UNL1        0.1101
      9 C         138.8497  140.7510  163.1527 C.3     1  UNL1        0.1876
     10 C         141.7077  139.7678  167.6377 C.ar    1  UNL1        0.1732
     11 C         142.4659  140.0882  166.3838 C.ar    1  UNL1        0.0515
     12 C         141.7564  140.7061  165.2154 C.ar    1  UNL1        0.0620
     13 CL        142.5146  141.0266  163.9615 Cl      1  UNL1       -0.0821
     14 C         140.2887  141.0034  165.3011 C.ar    1  UNL1        0.0284
     15 C         139.5304  140.6829  166.5551 C.ar    1  UNL1        0.0421
     16 C         140.2399  140.0651  167.7233 C.ar    1  UNL1        0.1725
     17 C         142.7979  139.9956  169.9850 C.3     1  UNL1        0.2526
     18 O         142.4172  139.1500  168.8059 O.3     1  UNL1       -0.4683
     19 O         139.4817  139.7446  168.9773 O.3     1  UNL1       -0.4684
     20 C         139.1894  140.8266  169.9743 C.3     1  UNL1        0.2526
     21 C         139.1985  138.2569  164.0486 C.1     1  UNL1        0.1009
     22 N         139.7396  137.2485  165.0184 N.1     1  UNL1       -0.1910
     23 S         138.9095  145.2151  162.5883 S.3     1  UNL1       -0.0383
     24 C         140.0470  145.8633  161.8562 C.3     1  UNL1        0.1522
     25 C         140.5822  145.2416  160.6004 C.2     1  UNL1        0.2373
     26 O         139.8827  145.4701  159.2934 O.2     1  UNL1       -0.2739
     27 N         141.8169  144.3913  160.6517 N.am    1  UNL1       -0.2753
     28 C         142.3519  143.7695  159.3958 C.3     1  UNL1        0.1149
     29 C         142.5164  144.1628  161.9588 C.3     1  UNL1        0.1149
@<TRIPOS>BOND
     1    17    18    1
     2    18    10    1
     3    10    11   ar
     4    11    12   ar
     5    12    13    1
     6    12    14   ar
     7    14     1    1
     8     1     2    2
     9     2     3    1
    10     3    23    1
    11    23    24    1
    12    24    25    1
    13    25    26    2
    14    25    27   am
    15    27    28    1
    16    27    29    1
    17     3     4    2
    18     4     5    1
    19     5     6    2
    20     6     7    1
    21     7     8    2
    22     8    21    1
    23    21    22    3
    24     8     9    1
    25    14    15   ar
    26    15    16   ar
    27    16    19    1
    28    19    20    1
    29    16    10   ar
    30     9     1    1
    31     9     5    1
@<TRIPOS>MOLECULE
*****
 29 31 0 0 0
SMALL
GASTEIGER

@<TRIPOS>ATOM
      1 C         139.6145  141.2096  165.5438 C.2     1  UNL1        0.0806
      2 N         139.6576  141.4582  167.0224 N.2     1  UNL1       -0.2021
      3 C         139.3958  140.3337  167.9799 C.2     1  UNL1        0.3040
      4 N         139.0908  138.9605  167.4588 N.2     1  UNL1       -0.0109
      5 C         139.0477  138.7120  165.9802 C.2     1  UNL1        0.3639
      6 N         138.7756  137.4740  165.1781 N.2     1  UNL1       -0.0335
      7 C         138.8693  137.8335  163.7248 C.2     1  UNL1        0.2424
      8 C         139.1993  139.2936  163.6288 C.2     1  UNL1        0.1101
      9 C         139.3095  139.8365  165.0227 C.3     1  UNL1        0.1876
     10 C         140.4002  144.5833  162.6713 C.ar    1  UNL1        0.1732
     11 C         138.9979  144.2851  163.1125 C.ar    1  UNL1        0.0515
     12 C         138.7359  143.1606  164.0700 C.ar    1  UNL1        0.0620
     13 CL        137.3337  142.8624  164.5112 Cl      1  UNL1       -0.0821
     14 C         139.8764  142.3342  164.5863 C.ar    1  UNL1        0.0284
     15 C         141.2787  142.6324  164.1451 C.ar    1  UNL1        0.0421
     16 C         141.5406  143.7569  163.1876 C.ar    1  UNL1        0.1725
     17 C         140.6979  145.4432  160.2378 C.3     1  UNL1        0.2526
     18 O         140.6620  145.7078  161.7139 O.3     1  UNL1       -0.4683
     19 O         142.9429  144.0551  162.7464 O.3     1  UNL1       -0.4684
     20 C         143.8399  144.8899  163.6116 C.3     1  UNL1        0.2526
     21 C         139.3862  140.0737  162.3613 C.1     1  UNL1        0.1009
     22 N         139.5731  140.8539  161.0939 N.1     1  UNL1       -0.1910
     23 S         139.4389  140.5823  169.4586 S.3     1  UNL1       -0.0383
     24 C         140.6539  140.1960  170.2490 C.3     1  UNL1        0.1522
     25 C         141.7233  141.2110  170.5246 C.2     1  UNL1        0.2373
     26 O         141.6503  142.0611  171.7583 O.2     1  UNL1       -0.2739
     27 N         142.8656  141.3761  169.5666 N.am    1  UNL1       -0.2753
     28 C         143.9350  142.3912  169.8424 C.3     1  UNL1        0.1149
     29 C         142.9386  140.5260  168.3329 C.3     1  UNL1        0.1149
@<TRIPOS>BOND
     1    17    18    1
     2    18    10    1
     3    10    11   ar
     4    11    12   ar
     5    12    13    1
     6    12    14   ar
     7    14     1    1
     8     1     2    2
     9     2     3    1
    10     3    23    1
    11    23    24    1
    12    24    25    1
    13    25    26    2
    14    25    27   am
    15    27    28    1
    16    27    29    1
    17     3     4    2
    18     4     5    1
    19     5     6    2
    20     6     7    1
    21     7     8    2
    22     8    21    1
    23    21    22    3
    24     8     9    1
    25    14    15   ar
    26    15    16   ar
    27    16    19    1
    28    19    20    1
    29    16    10   ar
    30     9     1    1
    31     9     5    1
@<TRIPOS>MOLECULE
*****
 29 31 0 0 0
SMALL
GASTEIGER

@<TRIPOS>ATOM
      1 C         141.5441  141.3917  164.5332 C.2     1  UNL1        0.0806
      2 N         140.8132  142.4511  163.7628 N.2     1  UNL1       -0.2021
      3 C         141.1572  142.7047  162.3251 C.2     1  UNL1        0.3040
      4 N         142.2322  141.8991  161.6576 N.2     1  UNL1       -0.0109
      5 C         142.9631  140.8397  162.4280 C.2     1  UNL1        0.3639
      6 N         144.0610  139.8941  162.0403 N.2     1  UNL1       -0.0335
      7 C         144.3955  139.0560  163.2384 C.2     1  UNL1        0.2424
      8 C         143.5043  139.4836  164.3667 C.2     1  UNL1        0.1101
      9 C         142.6190  140.5861  163.8658 C.3     1  UNL1        0.1876
     10 C         140.5119  140.6306  168.8467 C.ar    1  UNL1        0.1732
     11 C         141.7002  141.4770  168.4979 C.ar    1  UNL1        0.0515
     12 C         142.0443  141.7307  167.0601 C.ar    1  UNL1        0.0620
     13 CL        143.2326  142.5771  166.7113 Cl      1  UNL1       -0.0821
     14 C         141.2001  141.1380  165.9711 C.ar    1  UNL1        0.0284
     15 C         140.0117  140.2916  166.3198 C.ar    1  UNL1        0.0421
     16 C         139.6677  140.0380  167.7576 C.ar    1  UNL1        0.1725
     17 C         140.9909  140.9987  171.3736 C.3     1  UNL1        0.2526
     18 O         140.1679  140.3770  170.2844 O.3     1  UNL1       -0.4683
     19 O         138.4794  139.1916  168.1064 O.3     1  UNL1       -0.4684
     20 C         137.6854  138.5293  167.0196 C.3     1  UNL1        0.2526
     21 C         143.4994  138.9096  165.7525 C.1     1  UNL1        0.1009
     22 N         143.4944  138.3355  167.1383 N.1     1  UNL1       -0.1910
     23 S         140.4263  143.7641  161.5546 S.3     1  UNL1       -0.0383
     24 C         139.1950  143.4094  160.7747 C.3     1  UNL1        0.1522
     25 C         138.3511  142.2428  161.1952 C.2     1  UNL1        0.2373
     26 O         137.3802  142.3895  162.3291 O.2     1  UNL1       -0.2739
     27 N         138.4780  140.9295  160.4817 N.am    1  UNL1       -0.2753
     28 C         137.6340  139.7629  160.9023 C.3     1  UNL1        0.1149
     29 C         139.4489  140.7828  159.3478 C.3     1  UNL1        0.1149
@<TRIPOS>BOND
     1    17    18    1
     2    18    10    1
     3    10    11   ar
     4    11    12   ar
     5    12    13    1
     6    12    14   ar
     7    14     1    1
     8     1     2    2
     9     2     3    1
    10     3    23    1
    11    23    24    1
    12    24    25    1
    13    25    26    2
    14    25    27   am
    15    27    28    1
    16    27    29    1
    17     3     4    2
    18     4     5    1
    19     5     6    2
    20     6     7    1
    21     7     8    2
    22     8    21    1
    23    21    22    3
    24     8     9    1
    25    14    15   ar
    26    15    16   ar
    27    16    19    1
    28    19    20    1
    29    16    10   ar
    30     9     1    1
    31     9     5    1
@<TRIPOS>MOLECULE
*****
 29 31 0 0 0
SMALL
GASTEIGER

@<TRIPOS>ATOM
      1 C         140.2161  142.8618  164.0895 C.2     1  UNL1        0.0806
      2 N         140.6558  144.0675  163.3129 N.2     1  UNL1       -0.2021
      3 C         140.0006  144.3968  162.0045 C.2     1  UNL1        0.3040
      4 N         138.9055  143.5204  161.4725 N.2     1  UNL1       -0.0109
      5 C         138.4658  142.3148  162.2491 C.2     1  UNL1        0.3639
      6 N         137.4206  141.2734  161.9790 N.2     1  UNL1       -0.0335
      7 C         137.4299  140.3004  163.1206 C.2     1  UNL1        0.2424
      8 C         138.4809  140.7405  164.0962 C.2     1  UNL1        0.1101
      9 C         139.1211  141.9855  163.5576 C.3     1  UNL1        0.1876
     10 C         142.1819  141.8740  168.0151 C.ar    1  UNL1        0.1732
     11 C         142.7448  141.3285  166.7362 C.ar    1  UNL1        0.0515
     12 C         142.0895  141.6578  165.4276 C.ar    1  UNL1        0.0620
     13 CL        142.6524  141.1122  164.1487 Cl      1  UNL1       -0.0821
     14 C         140.8714  142.5325  165.3980 C.ar    1  UNL1        0.0284
     15 C         140.3085  143.0781  166.6770 C.ar    1  UNL1        0.0421
     16 C         140.9638  142.7489  167.9854 C.ar    1  UNL1        0.1725
     17 C         142.7772  140.1457  169.8614 C.3     1  UNL1        0.2526
     18 O         142.8372  141.5448  169.3235 O.3     1  UNL1       -0.4683
     19 O         140.4009  143.2944  169.2643 O.3     1  UNL1       -0.4684
     20 C         139.7570  142.3701  170.2549 C.3     1  UNL1        0.2526
     21 C         138.8302  140.0559  165.3843 C.1     1  UNL1        0.1009
     22 N         139.1796  139.3712  166.6724 N.1     1  UNL1       -0.1910
     23 S         140.4404  145.6025  161.2279 S.3     1  UNL1       -0.0383
     24 C         140.1659  145.6874  159.7557 C.3     1  UNL1        0.1522
     25 C         141.2383  145.3267  158.7708 C.2     1  UNL1        0.2373
     26 O         142.4413  144.5526  159.2220 O.2     1  UNL1       -0.2739
     27 N         141.1076  145.7401  157.3348 N.am    1  UNL1       -0.2753
     28 C         142.1801  145.3793  156.3500 C.3     1  UNL1        0.1149
     29 C         139.9046  146.5141  156.8837 C.3     1  UNL1        0.1149
@<TRIPOS>BOND
     1    17    18    1
     2    18    10    1
     3    10    11   ar
     4    11    12   ar
     5    12    13    1
     6    12    14   ar
     7    14     1    1
     8     1     2    2
     9     2     3    1
    10     3    23    1
    11    23    24    1
    12    24    25    1
    13    25    26    2
    14    25    27   am
    15    27    28    1
    16    27    29    1
    17     3     4    2
    18     4     5    1
    19     5     6    2
    20     6     7    1
    21     7     8    2
    22     8    21    1
    23    21    22    3
    24     8     9    1
    25    14    15   ar
    26    15    16   ar
    27    16    19    1
    28    19    20    1
    29    16    10   ar
    30     9     1    1
    31     9     5    1
@<TRIPOS>MOLECULE
*****
 29 31 0 0 0
SMALL
GASTEIGER

@<TRIPOS>ATOM
      1 C         142.4788  141.7686  163.7963 C.2     1  UNL1        0.0806
      2 N         142.0742  142.9745  163.0013 N.2     1  UNL1       -0.2021
      3 C         142.2586  142.9880  161.5128 C.2     1  UNL1        0.3040
      4 N         142.8476  141.7954  160.8192 N.2     1  UNL1       -0.0109
      5 C         143.2522  140.5895  161.6142 C.2     1  UNL1        0.3639
      6 N         143.8548  139.2768  161.2098 N.2     1  UNL1       -0.0335
      7 C         144.0428  138.4520  162.4485 C.2     1  UNL1        0.2424
      8 C         143.5564  139.2550  163.6184 C.2     1  UNL1        0.1101
      9 C         143.0678  140.5761  163.1027 C.3     1  UNL1        0.1876
     10 C         141.9255  141.7283  168.2620 C.ar    1  UNL1        0.1732
     11 C         143.1400  142.3729  167.6625 C.ar    1  UNL1        0.0515
     12 C         143.3245  142.3864  166.1739 C.ar    1  UNL1        0.0620
     13 CL        144.5390  143.0310  165.5744 Cl      1  UNL1       -0.0821
     14 C         142.2944  141.7552  165.2849 C.ar    1  UNL1        0.0284
     15 C         141.0798  141.1105  165.8844 C.ar    1  UNL1        0.0421
     16 C         140.8954  141.0970  167.3729 C.ar    1  UNL1        0.1725
     17 C         142.2090  140.5375  170.5537 C.3     1  UNL1        0.2526
     18 O         141.7411  141.7148  169.7505 O.3     1  UNL1       -0.4683
     19 O         139.6809  140.4524  167.9723 O.3     1  UNL1       -0.4684
     20 C         138.8946  139.4511  167.1792 C.3     1  UNL1        0.2526
     21 C         143.5584  138.8143  165.0522 C.1     1  UNL1        0.1009
     22 N         143.5603  138.3735  166.4860 N.1     1  UNL1       -0.1910
     23 S         141.8539  144.1940  160.7178 S.3     1  UNL1       -0.0383
     24 C         140.4124  144.4099  160.3639 C.3     1  UNL1        0.1522
     25 C         139.4355  144.8311  161.4214 C.2     1  UNL1        0.2373
     26 O         139.2763  146.2838  161.7595 O.2     1  UNL1       -0.2739
     27 N         138.6178  143.7996  162.1407 N.am    1  UNL1       -0.2753
     28 C         137.6408  144.2210  163.1982 C.3     1  UNL1        0.1149
     29 C         138.7769  142.3469  161.8025 C.3     1  UNL1        0.1149
@<TRIPOS>BOND
     1    17    18    1
     2    18    10    1
     3    10    11   ar
     4    11    12   ar
     5    12    13    1
     6    12    14   ar
     7    14     1    1
     8     1     2    2
     9     2     3    1
    10     3    23    1
    11    23    24    1
    12    24    25    1
    13    25    26    2
    14    25    27   am
    15    27    28    1
    16    27    29    1
    17     3     4    2
    18     4     5    1
    19     5     6    2
    20     6     7    1
    21     7     8    2
    22     8    21    1
    23    21    22    3
    24     8     9    1
    25    14    15   ar
    26    15    16   ar
    27    16    19    1
    28    19    20    1
    29    16    10   ar
    30     9     1    1
    31     9     5    1
