@<TRIPOS>MOLECULE
*****
 19 20 0 0 0
SMALL
GASTEIGER

@<TRIPOS>ATOM
      1 C         138.2325  142.1441  164.3782 C.ar    1  UNL1        0.1295
      2 N         139.2913  142.1500  165.4407 N.ar    1  UNL1       -0.2298
      3 C         139.3239  140.7889  166.0702 C.ar    1  UNL1        0.0996
      4 C         138.2852  139.9417  165.3968 C.ar    1  UNL1        0.0927
      5 N         137.6107  140.7793  164.3511 N.ar    1  UNL1       -0.3386
      6 H         136.8870  140.4849  163.7521 H       1  UNL1        0.1672
      7 C         140.2352  140.3517  167.1786 C.ar    1  UNL1        0.0192
      8 C         139.7435  140.3463  168.5957 C.ar    1  UNL1        0.0024
      9 C         140.6548  139.9091  169.7040 C.ar    1  UNL1        0.0114
     10 C         142.0577  139.4773  169.3953 C.ar    1  UNL1        0.0577
     11 CL        142.9690  139.0401  170.5037 Cl      1  UNL1       -0.0822
     12 C         142.5493  139.4826  167.9782 C.ar    1  UNL1        0.0114
     13 C         141.6381  139.9198  166.8698 C.ar    1  UNL1        0.0024
     14 C         137.7826  142.3764  162.3182 C.3     1  UNL1        0.0232
     15 C         137.8608  143.3000  163.4975 C.3     1  UNL1        0.0901
     16 C         137.9391  144.2237  164.6768 C.3     1  UNL1        0.0232
     17 N         137.4891  144.4559  162.6168 N.3     1  UNL1       -0.3177
     18 H         137.3547  144.1258  161.6611 H       1  UNL1        0.1191
     19 H         138.2356  145.1508  162.6346 H       1  UNL1        0.1191
@<TRIPOS>BOND
     1    14    15    1
     2    15    16    1
     3    15    17    1
     4    15     1    1
     5     1     2   ar
     6     2     3   ar
     7     3     7    1
     8     7     8   ar
     9     8     9   ar
    10     9    10   ar
    11    10    11    1
    12    10    12   ar
    13    12    13   ar
    14     3     4   ar
    15     4     5   ar
    16     5     1   ar
    17    13     7   ar
    18    17    18    1
    19    17    19    1
    20     5     6    1
@<TRIPOS>MOLECULE
*****
 19 20 0 0 0
SMALL
GASTEIGER

@<TRIPOS>ATOM
      1 C         141.0817  140.9188  168.7850 C.ar    1  UNL1        0.1295
      2 N         140.2883  141.7663  167.8353 N.ar    1  UNL1       -0.2298
      3 C         141.2297  142.3100  166.8018 C.ar    1  UNL1        0.0996
      4 C         142.6051  141.7985  167.1128 C.ar    1  UNL1        0.0927
      5 N         142.5137  140.9387  168.3385 N.ar    1  UNL1       -0.3386
      6 H         143.2620  140.4698  168.7736 H       1  UNL1        0.1672
      7 C         140.8606  143.2076  165.6580 C.ar    1  UNL1        0.0192
      8 C         141.8686  143.5158  164.5909 C.ar    1  UNL1        0.0024
      9 C         141.4995  144.4134  163.4473 C.ar    1  UNL1        0.0114
     10 C         140.1222  145.0028  163.3707 C.ar    1  UNL1        0.0577
     11 CL        139.7531  145.9004  162.2270 Cl      1  UNL1       -0.0822
     12 C         139.1142  144.6946  164.4378 C.ar    1  UNL1        0.0114
     13 C         139.4833  143.7970  165.5815 C.ar    1  UNL1        0.0024
     14 C         139.2817  140.9964  169.9047 C.3     1  UNL1        0.0232
     15 C         140.5387  140.1809  169.9727 C.3     1  UNL1        0.0901
     16 C         141.7958  139.3653  170.0408 C.3     1  UNL1        0.0232
     17 N         139.9957  139.4430  171.1604 N.3     1  UNL1       -0.3177
     18 H         139.0667  139.7986  171.3860 H       1  UNL1        0.1191
     19 H         140.6155  139.5806  171.9587 H       1  UNL1        0.1191
@<TRIPOS>BOND
     1    14    15    1
     2    15    16    1
     3    15    17    1
     4    15     1    1
     5     1     2   ar
     6     2     3   ar
     7     3     7    1
     8     7     8   ar
     9     8     9   ar
    10     9    10   ar
    11    10    11    1
    12    10    12   ar
    13    12    13   ar
    14     3     4   ar
    15     4     5   ar
    16     5     1   ar
    17    13     7   ar
    18    17    18    1
    19    17    19    1
    20     5     6    1
@<TRIPOS>MOLECULE
*****
 19 20 0 0 0
SMALL
GASTEIGER

@<TRIPOS>ATOM
      1 C         141.0602  140.0255  168.9278 C.ar    1  UNL1        0.1295
      2 N         139.9444  139.8660  167.9382 N.ar    1  UNL1       -0.2298
      3 C         140.5499  139.5371  166.6058 C.ar    1  UNL1        0.0996
      4 C         142.0400  139.4933  166.7720 C.ar    1  UNL1        0.0927
      5 N         142.3554  139.7952  168.2071 N.ar    1  UNL1       -0.3386
      6 H         143.2547  139.8351  168.6059 H       1  UNL1        0.1672
      7 C         139.7974  139.2945  165.3311 C.ar    1  UNL1        0.0192
      8 C         138.9367  140.3772  164.7506 C.ar    1  UNL1        0.0024
      9 C         138.1843  140.1346  163.4759 C.ar    1  UNL1        0.0114
     10 C         138.2925  138.8093  162.7817 C.ar    1  UNL1        0.0577
     11 CL        137.5400  138.5667  161.5069 Cl      1  UNL1       -0.0822
     12 C         139.1531  137.7266  163.3622 C.ar    1  UNL1        0.0114
     13 C         139.9056  137.9692  164.6369 C.ar    1  UNL1        0.0024
     14 C         142.3948  140.2699  170.5585 C.3     1  UNL1        0.0232
     15 C         140.9077  140.3572  170.3827 C.3     1  UNL1        0.0901
     16 C         139.4206  140.4444  170.2069 C.3     1  UNL1        0.0232
     17 N         140.7552  140.6888  171.8376 N.3     1  UNL1       -0.3177
     18 H         141.6740  140.7080  172.2801 H       1  UNL1        0.1191
     19 H         140.1753  139.9812  172.2887 H       1  UNL1        0.1191
@<TRIPOS>BOND
     1    14    15    1
     2    15    16    1
     3    15    17    1
     4    15     1    1
     5     1     2   ar
     6     2     3   ar
     7     3     7    1
     8     7     8   ar
     9     8     9   ar
    10     9    10   ar
    11    10    11    1
    12    10    12   ar
    13    12    13   ar
    14     3     4   ar
    15     4     5   ar
    16     5     1   ar
    17    13     7   ar
    18    17    18    1
    19    17    19    1
    20     5     6    1
@<TRIPOS>MOLECULE
*****
 19 20 0 0 0
SMALL
GASTEIGER

@<TRIPOS>ATOM
      1 C         140.3209  141.3779  168.8747 C.ar    1  UNL1        0.1295
      2 N         140.3777  142.6377  168.0625 N.ar    1  UNL1       -0.2298
      3 C         140.1186  142.2776  166.6296 C.ar    1  UNL1        0.0996
      4 C         139.9016  140.7953  166.5561 C.ar    1  UNL1        0.0927
      5 N         140.0266  140.2391  167.9436 N.ar    1  UNL1       -0.3386
      6 H         139.9321  139.2929  168.1984 H       1  UNL1        0.1672
      7 C         140.0827  143.2324  165.4732 C.ar    1  UNL1        0.0192
      8 C         141.3552  143.6170  164.7784 C.ar    1  UNL1        0.0024
      9 C         141.3193  144.5717  163.6221 C.ar    1  UNL1        0.0114
     10 C         140.0109  145.1419  163.1605 C.ar    1  UNL1        0.0577
     11 CL        139.9751  146.0966  162.0041 Cl      1  UNL1       -0.0822
     12 C         138.7384  144.7573  163.8553 C.ar    1  UNL1        0.0114
     13 C         138.7743  143.8025  165.0117 C.ar    1  UNL1        0.0024
     14 C         139.9804  142.6628  170.5278 C.3     1  UNL1        0.0232
     15 C         140.5229  141.2748  170.3574 C.3     1  UNL1        0.0901
     16 C         141.0653  139.8867  170.1870 C.3     1  UNL1        0.0232
     17 N         140.7248  141.1717  171.8401 N.3     1  UNL1       -0.3177
     18 H         140.4229  142.0382  172.2855 H       1  UNL1        0.1191
     19 H         141.7128  141.0138  172.0385 H       1  UNL1        0.1191
@<TRIPOS>BOND
     1    14    15    1
     2    15    16    1
     3    15    17    1
     4    15     1    1
     5     1     2   ar
     6     2     3   ar
     7     3     7    1
     8     7     8   ar
     9     8     9   ar
    10     9    10   ar
    11    10    11    1
    12    10    12   ar
    13    12    13   ar
    14     3     4   ar
    15     4     5   ar
    16     5     1   ar
    17    13     7   ar
    18    17    18    1
    19    17    19    1
    20     5     6    1
@<TRIPOS>MOLECULE
*****
 19 20 0 0 0
SMALL
GASTEIGER

@<TRIPOS>ATOM
      1 C         142.4267  141.5471  169.2582 C.ar    1  UNL1        0.1295
      2 N         141.4917  141.4324  168.0909 N.ar    1  UNL1       -0.2298
      3 C         141.5754  140.0297  167.5660 C.ar    1  UNL1        0.0996
      4 C         142.5622  139.2775  168.4088 C.ar    1  UNL1        0.0927
      5 N         143.0884  140.2152  169.4546 N.ar    1  UNL1       -0.3386
      6 H         143.7515  139.9952  170.1482 H       1  UNL1        0.1672
      7 C         140.8072  139.4764  166.4024 C.ar    1  UNL1        0.0192
      8 C         139.3184  139.6476  166.3371 C.ar    1  UNL1        0.0024
      9 C         138.5503  139.0943  165.1736 C.ar    1  UNL1        0.0114
     10 C         139.2709  138.3699  164.0754 C.ar    1  UNL1        0.0577
     11 CL        138.5026  137.8167  162.9119 Cl      1  UNL1       -0.0822
     12 C         140.7596  138.1988  164.1407 C.ar    1  UNL1        0.0114
     13 C         141.5278  138.7520  165.3042 C.ar    1  UNL1        0.0024
     14 C         144.1348  142.5078  170.0702 C.3     1  UNL1        0.0232
     15 C         142.6594  142.7775  170.0840 C.3     1  UNL1        0.0901
     16 C         141.1839  143.0472  170.0977 C.3     1  UNL1        0.0232
     17 N         142.8920  144.0079  170.9098 N.3     1  UNL1       -0.3177
     18 H         143.8906  144.1139  171.0881 H       1  UNL1        0.1191
     19 H         142.3955  143.9211  171.7966 H       1  UNL1        0.1191
@<TRIPOS>BOND
     1    14    15    1
     2    15    16    1
     3    15    17    1
     4    15     1    1
     5     1     2   ar
     6     2     3   ar
     7     3     7    1
     8     7     8   ar
     9     8     9   ar
    10     9    10   ar
    11    10    11    1
    12    10    12   ar
    13    12    13   ar
    14     3     4   ar
    15     4     5   ar
    16     5     1   ar
    17    13     7   ar
    18    17    18    1
    19    17    19    1
    20     5     6    1
@<TRIPOS>MOLECULE
*****
 19 20 0 0 0
SMALL
GASTEIGER

@<TRIPOS>ATOM
      1 C         140.6665  144.4984  163.6550 C.ar    1  UNL1        0.1295
      2 N         141.0905  143.4467  164.6369 N.ar    1  UNL1       -0.2298
      3 C         140.1016  143.4398  165.7647 C.ar    1  UNL1        0.0996
      4 C         139.0663  144.4871  165.4799 C.ar    1  UNL1        0.0927
      5 N         139.4154  145.1414  164.1760 N.ar    1  UNL1       -0.3386
      6 H         138.9118  145.8657  163.7389 H       1  UNL1        0.1672
      7 C         140.1410  142.5428  166.9665 C.ar    1  UNL1        0.0192
      8 C         140.4148  143.1193  168.3239 C.ar    1  UNL1        0.0024
      9 C         140.4542  142.2224  169.5255 C.ar    1  UNL1        0.0114
     10 C         140.2199  140.7490  169.3697 C.ar    1  UNL1        0.0577
     11 CL        140.2593  139.8521  170.5714 Cl      1  UNL1       -0.0822
     12 C         139.9461  140.1725  168.0123 C.ar    1  UNL1        0.0114
     13 C         139.9067  141.0695  166.8106 C.ar    1  UNL1        0.0024
     14 C         140.0486  144.9261  161.6713 C.3     1  UNL1        0.0232
     15 C         141.3700  144.8460  162.3767 C.3     1  UNL1        0.0901
     16 C         142.6913  144.7660  163.0820 C.3     1  UNL1        0.0232
     17 N         142.0734  145.1937  161.0983 N.3     1  UNL1       -0.3177
     18 H         141.3857  145.3238  160.3563 H       1  UNL1        0.1191
     19 H         142.7093  144.4379  160.8438 H       1  UNL1        0.1191
@<TRIPOS>BOND
     1    14    15    1
     2    15    16    1
     3    15    17    1
     4    15     1    1
     5     1     2   ar
     6     2     3   ar
     7     3     7    1
     8     7     8   ar
     9     8     9   ar
    10     9    10   ar
    11    10    11    1
    12    10    12   ar
    13    12    13   ar
    14     3     4   ar
    15     4     5   ar
    16     5     1   ar
    17    13     7   ar
    18    17    18    1
    19    17    19    1
    20     5     6    1
@<TRIPOS>MOLECULE
*****
 19 20 0 0 0
SMALL
GASTEIGER

@<TRIPOS>ATOM
      1 C         143.5004  141.8567  164.2645 C.ar    1  UNL1        0.1295
      2 N         142.7017  140.6611  164.6919 N.ar    1  UNL1       -0.2298
      3 C         141.3933  141.1493  165.2395 C.ar    1  UNL1        0.0996
      4 C         141.3834  142.6466  165.1505 C.ar    1  UNL1        0.0927
      5 N         142.6856  143.0838  164.5479 N.ar    1  UNL1       -0.3386
      6 H         142.9577  144.0130  164.3698 H       1  UNL1        0.1672
      7 C         140.2888  140.2908  165.7810 C.ar    1  UNL1        0.0192
      8 C         139.8396  140.4550  167.2026 C.ar    1  UNL1        0.0024
      9 C         138.7352  139.5965  167.7441 C.ar    1  UNL1        0.0114
     10 C         138.0800  138.5738  166.8638 C.ar    1  UNL1        0.0577
     11 CL        136.9755  137.7153  167.4053 Cl      1  UNL1       -0.0822
     12 C         138.5292  138.4096  165.4422 C.ar    1  UNL1        0.0114
     13 C         139.6336  139.2681  164.9007 C.ar    1  UNL1        0.0024
     14 C         144.6530  143.2040  163.0999 C.3     1  UNL1        0.0232
     15 C         144.8728  141.8299  163.6598 C.3     1  UNL1        0.0901
     16 C         145.0927  140.4558  164.2198 C.3     1  UNL1        0.0232
     17 N         146.2453  141.8031  163.0552 N.3     1  UNL1       -0.3177
     18 H         146.4154  142.6780  162.5591 H       1  UNL1        0.1191
     19 H         146.3138  141.0229  162.4017 H       1  UNL1        0.1191
@<TRIPOS>BOND
     1    14    15    1
     2    15    16    1
     3    15    17    1
     4    15     1    1
     5     1     2   ar
     6     2     3   ar
     7     3     7    1
     8     7     8   ar
     9     8     9   ar
    10     9    10   ar
    11    10    11    1
    12    10    12   ar
    13    12    13   ar
    14     3     4   ar
    15     4     5   ar
    16     5     1   ar
    17    13     7   ar
    18    17    18    1
    19    17    19    1
    20     5     6    1
@<TRIPOS>MOLECULE
*****
 19 20 0 0 0
SMALL
GASTEIGER

@<TRIPOS>ATOM
      1 C         141.3664  140.1300  168.9325 C.ar    1  UNL1        0.1295
      2 N         142.3558  139.7470  167.8722 N.ar    1  UNL1       -0.2298
      3 C         141.6047  139.5392  166.5906 C.ar    1  UNL1        0.0996
      4 C         140.1510  139.7937  166.8588 C.ar    1  UNL1        0.0927
      5 N         140.0037  140.1588  168.3062 N.ar    1  UNL1       -0.3386
      6 H         139.1606  140.3788  168.7646 H       1  UNL1        0.1672
      7 C         142.2024  139.1459  165.2722 C.ar    1  UNL1        0.0192
      8 C         143.5653  139.6414  164.8889 C.ar    1  UNL1        0.0024
      9 C         144.1629  139.2481  163.5705 C.ar    1  UNL1        0.0114
     10 C         143.3977  138.3592  162.6355 C.ar    1  UNL1        0.0577
     11 CL        143.9954  137.9659  161.3170 Cl      1  UNL1       -0.0822
     12 C         142.0348  137.8637  163.0188 C.ar    1  UNL1        0.0114
     13 C         141.4372  138.2570  164.3371 C.ar    1  UNL1        0.0024
     14 C         143.0863  140.7962  169.9803 C.3     1  UNL1        0.0232
     15 C         141.6838  140.4312  170.3673 C.3     1  UNL1        0.0901
     16 C         140.2813  140.0662  170.7542 C.3     1  UNL1        0.0232
     17 N         142.0013  140.7324  171.8020 N.3     1  UNL1       -0.3177
     18 H         142.9724  141.0347  171.8791 H       1  UNL1        0.1191
     19 H         141.8606  139.8934  172.3647 H       1  UNL1        0.1191
@<TRIPOS>BOND
     1    14    15    1
     2    15    16    1
     3    15    17    1
     4    15     1    1
     5     1     2   ar
     6     2     3   ar
     7     3     7    1
     8     7     8   ar
     9     8     9   ar
    10     9    10   ar
    11    10    11    1
    12    10    12   ar
    13    12    13   ar
    14     3     4   ar
    15     4     5   ar
    16     5     1   ar
    17    13     7   ar
    18    17    18    1
    19    17    19    1
    20     5     6    1
@<TRIPOS>MOLECULE
*****
 19 20 0 0 0
SMALL
GASTEIGER

@<TRIPOS>ATOM
      1 C         141.3910  140.7047  169.2442 C.ar    1  UNL1        0.1295
      2 N         140.6308  141.7875  168.5373 N.ar    1  UNL1       -0.2298
      3 C         140.4037  141.3461  167.1218 C.ar    1  UNL1        0.0996
      4 C         141.0235  139.9905  166.9539 C.ar    1  UNL1        0.0927
      5 N         141.6337  139.5941  168.2655 N.ar    1  UNL1       -0.3386
      6 H         142.1099  138.7527  168.4515 H       1  UNL1        0.1672
      7 C         139.6832  142.1238  166.0605 C.ar    1  UNL1        0.0192
      8 C         138.7188  141.4287  165.1458 C.ar    1  UNL1        0.0024
      9 C         137.9984  142.2064  164.0847 C.ar    1  UNL1        0.0114
     10 C         138.2424  143.6792  163.9382 C.ar    1  UNL1        0.0577
     11 CL        137.5219  144.4569  162.8770 Cl      1  UNL1       -0.0822
     12 C         139.2068  144.3742  164.8529 C.ar    1  UNL1        0.0114
     13 C         139.9272  143.5965  165.9141 C.ar    1  UNL1        0.0024
     14 C         142.8500  139.6678  170.3826 C.3     1  UNL1        0.0232
     15 C         141.8312  140.7284  170.6779 C.3     1  UNL1        0.0901
     16 C         140.8124  141.7889  170.9732 C.3     1  UNL1        0.0232
     17 N         142.2714  140.7520  172.1117 N.3     1  UNL1       -0.3177
     18 H         143.0244  140.0775  172.2473 H       1  UNL1        0.1191
     19 H         141.4843  140.5086  172.7130 H       1  UNL1        0.1191
@<TRIPOS>BOND
     1    14    15    1
     2    15    16    1
     3    15    17    1
     4    15     1    1
     5     1     2   ar
     6     2     3   ar
     7     3     7    1
     8     7     8   ar
     9     8     9   ar
    10     9    10   ar
    11    10    11    1
    12    10    12   ar
    13    12    13   ar
    14     3     4   ar
    15     4     5   ar
    16     5     1   ar
    17    13     7   ar
    18    17    18    1
    19    17    19    1
    20     5     6    1
