@<TRIPOS>MOLECULE
*****
 36 41 0 0 0
SMALL
GASTEIGER

@<TRIPOS>ATOM
      1 C         138.5054  140.1516  165.0679 C.ar    1  UNL1       -0.0065
      2 C         138.3080  141.6352  164.9684 C.ar    1  UNL1       -0.0032
      3 C         138.2791  142.2994  163.6238 C.ar    1  UNL1       -0.0026
      4 C         138.4474  141.4799  162.3788 C.ar    1  UNL1        0.0019
      5 C         138.6447  139.9963  162.4783 C.ar    1  UNL1       -0.0200
      6 C         138.6737  139.3322  163.8229 C.ar    1  UNL1       -0.0071
      7 C         138.7822  139.4527  161.0871 C.3     1  UNL1        0.0519
      8 C         138.6698  140.6003  160.1277 C.2     1  UNL1        0.0074
      9 C         138.6853  140.9735  158.6749 C.2     1  UNL1        0.0976
     10 N         138.4880  142.4571  158.5754 N.2     1  UNL1       -0.1526
     11 N         138.3506  143.0008  159.9667 N.2     1  UNL1       -0.1678
     12 C         138.4629  141.8533  160.9260 C.3     1  UNL1        0.1672
     13 C         138.8664  140.0290  157.5238 C.ar    1  UNL1        0.0265
     14 C         138.2449  140.1652  156.1654 C.ar    1  UNL1        0.0376
     15 S         138.6951  139.0028  155.3311 S.2     1  UNL1       -0.0780
     16 C         139.5949  138.1482  156.1739 C.ar    1  UNL1        0.0711
     17 C         139.7007  138.7824  157.5290 C.ar    1  UNL1        0.0168
     18 C         140.2702  136.8818  155.7380 C.1     1  UNL1       -0.0543
     19 C         140.9455  135.6152  155.3021 C.1     1  UNL1       -0.0388
     20 C         141.6208  134.3488  154.8662 C.3     1  UNL1        0.2814
     21 O         141.4893  133.1052  155.6946 O.3     1  UNL1       -0.4612
     22 C         142.6745  132.5761  156.4465 C.ar    1  UNL1        0.1400
     23 C         143.5587  133.5164  157.2107 C.ar    1  UNL1        0.0369
     24 C         144.7439  132.9873  157.9625 C.ar    1  UNL1        0.0031
     25 C         145.0449  131.5179  157.9502 C.ar    1  UNL1        0.0002
     26 C         144.1607  130.5776  157.1861 C.ar    1  UNL1        0.0031
     27 C         142.9755  131.1066  156.4342 C.ar    1  UNL1        0.0369
     28 C         138.5344  139.4873  166.4126 C.3     1  UNL1        0.0995
     29 C         143.0470  140.5940  170.2087 C.3     1  UNL1        0.1149
     30 N         141.9189  140.3173  169.2597 N.am    1  UNL1       -0.2752
     31 C         142.2096  139.9750  167.8286 C.3     1  UNL1        0.1108
     32 C         141.0814  139.6983  166.8795 C.3     1  UNL1        0.0945
     33 N         139.6625  139.7640  167.3616 N.3     1  UNL1       -0.2597
     34 C         139.3718  140.1063  168.7929 C.3     1  UNL1        0.1589
     35 C         140.5000  140.3829  169.7419 C.2     1  UNL1        0.2421
     36 O         140.2093  140.7252  171.1730 O.2     1  UNL1       -0.2734
@<TRIPOS>BOND
     1    29    30    1
     2    30    31    1
     3    31    32    1
     4    32    33    1
     5    33    28    1
     6    28     1    1
     7     1     2   ar
     8     2     3   ar
     9     3     4   ar
    10     4     5   ar
    11     5     6   ar
    12     5     7    1
    13     7     8    1
    14     8     9    2
    15     9    13    1
    16    13    14   ar
    17    14    15   ar
    18    15    16   ar
    19    16    18    1
    20    18    19    3
    21    19    20    1
    22    20    21    1
    23    21    22    1
    24    22    23   ar
    25    23    24   ar
    26    24    25   ar
    27    25    26   ar
    28    26    27   ar
    29    16    17   ar
    30     9    10    1
    31    10    11    2
    32    11    12    1
    33    33    34    1
    34    34    35    1
    35    35    36    2
    36    35    30   am
    37     6     1   ar
    38    12     8    1
    39    12     4    1
    40    17    13   ar
    41    27    22   ar
@<TRIPOS>MOLECULE
*****
 36 41 0 0 0
SMALL
GASTEIGER

@<TRIPOS>ATOM
      1 C         142.0171  136.1660  155.1292 C.ar    1  UNL1       -0.0065
      2 C         141.0350  136.6341  154.0966 C.ar    1  UNL1       -0.0032
      3 C         139.9642  137.6157  154.4705 C.ar    1  UNL1       -0.0026
      4 C         139.8756  138.1293  155.8770 C.ar    1  UNL1        0.0019
      5 C         140.8577  137.6613  156.9096 C.ar    1  UNL1       -0.0200
      6 C         141.9284  136.6796  156.5357 C.ar    1  UNL1       -0.0071
      7 C         140.5246  138.3377  158.2064 C.3     1  UNL1        0.0519
      8 C         139.3366  139.2238  157.9752 C.2     1  UNL1        0.0074
      9 C         138.3965  140.1895  158.6337 C.2     1  UNL1        0.0976
     10 N         137.4144  140.6575  157.6011 N.2     1  UNL1       -0.1526
     11 N         137.7475  139.9811  156.3044 N.2     1  UNL1       -0.1678
     12 C         138.9354  139.0951  156.5355 C.3     1  UNL1        0.1672
     13 C         138.4322  140.6128  160.0723 C.ar    1  UNL1        0.0265
     14 C         138.6394  142.0108  160.5751 C.ar    1  UNL1        0.0376
     15 S         138.6023  141.9743  162.0742 S.2     1  UNL1       -0.0780
     16 C         138.3722  140.5539  162.4979 C.ar    1  UNL1        0.0711
     17 C         138.2671  139.7124  161.2606 C.ar    1  UNL1        0.0168
     18 C         138.2658  140.0615  163.9107 C.1     1  UNL1       -0.0543
     19 C         138.1596  139.5690  165.3236 C.1     1  UNL1       -0.0388
     20 C         138.0532  139.0765  166.7365 C.3     1  UNL1        0.2814
     21 O         139.2443  139.1437  167.6458 O.3     1  UNL1       -0.4612
     22 C         139.6333  140.4476  168.2771 C.ar    1  UNL1        0.1400
     23 C         139.2718  140.7264  169.7060 C.ar    1  UNL1        0.0369
     24 C         139.6607  142.0302  170.3373 C.ar    1  UNL1        0.0031
     25 C         140.4112  143.0552  169.5398 C.ar    1  UNL1        0.0002
     26 C         140.7728  142.7764  168.1110 C.ar    1  UNL1        0.0031
     27 C         140.3838  141.4726  167.4797 C.ar    1  UNL1        0.0369
     28 C         143.0879  135.1843  154.7553 C.3     1  UNL1        0.0995
     29 C         143.4665  129.9237  157.6158 C.3     1  UNL1        0.1149
     30 N         143.3718  131.2389  156.9007 N.am    1  UNL1       -0.2752
     31 C         142.2856  131.4675  155.8918 C.3     1  UNL1        0.1108
     32 C         142.1909  132.7827  155.1766 C.3     1  UNL1        0.0945
     33 N         143.1825  133.8692  155.4704 N.3     1  UNL1       -0.2597
     34 C         144.2687  133.6405  156.4793 C.3     1  UNL1        0.1589
     35 C         144.3634  132.3254  157.1944 C.2     1  UNL1        0.2421
     36 O         145.4496  132.0968  158.2033 O.2     1  UNL1       -0.2734
@<TRIPOS>BOND
     1    29    30    1
     2    30    31    1
     3    31    32    1
     4    32    33    1
     5    33    28    1
     6    28     1    1
     7     1     2   ar
     8     2     3   ar
     9     3     4   ar
    10     4     5   ar
    11     5     6   ar
    12     5     7    1
    13     7     8    1
    14     8     9    2
    15     9    13    1
    16    13    14   ar
    17    14    15   ar
    18    15    16   ar
    19    16    18    1
    20    18    19    3
    21    19    20    1
    22    20    21    1
    23    21    22    1
    24    22    23   ar
    25    23    24   ar
    26    24    25   ar
    27    25    26   ar
    28    26    27   ar
    29    16    17   ar
    30     9    10    1
    31    10    11    2
    32    11    12    1
    33    33    34    1
    34    34    35    1
    35    35    36    2
    36    35    30   am
    37     6     1   ar
    38    12     8    1
    39    12     4    1
    40    17    13   ar
    41    27    22   ar
@<TRIPOS>MOLECULE
*****
 36 41 0 0 0
SMALL
GASTEIGER

@<TRIPOS>ATOM
      1 C         142.3450  136.9295  155.8475 C.ar    1  UNL1       -0.0065
      2 C         143.3857  137.4719  154.9134 C.ar    1  UNL1       -0.0032
      3 C         144.1423  138.7157  155.2744 C.ar    1  UNL1       -0.0026
      4 C         143.8583  139.4171  156.5695 C.ar    1  UNL1        0.0019
      5 C         142.8176  138.8746  157.5037 C.ar    1  UNL1       -0.0200
      6 C         142.0610  137.6308  157.1427 C.ar    1  UNL1       -0.0071
      7 C         142.7556  139.7751  158.7017 C.3     1  UNL1        0.0519
      8 C         143.7579  140.8741  158.5080 C.2     1  UNL1        0.0074
      9 C         144.3390  142.1098  159.1287 C.2     1  UNL1        0.0976
     10 N         145.3797  142.6523  158.1945 N.2     1  UNL1       -0.1526
     11 N         145.4417  141.7518  156.9965 N.2     1  UNL1       -0.1678
     12 C         144.4395  140.6529  157.1902 C.3     1  UNL1        0.1672
     13 C         143.9481  142.6995  160.4514 C.ar    1  UNL1        0.0265
     14 C         144.8887  143.1240  161.5400 C.ar    1  UNL1        0.0376
     15 S         144.0699  143.6551  162.6791 S.2     1  UNL1       -0.0780
     16 C         142.6232  143.5589  162.2944 C.ar    1  UNL1        0.0711
     17 C         142.5480  142.9683  160.9176 C.ar    1  UNL1        0.0168
     18 C         141.4566  143.9794  163.1383 C.1     1  UNL1       -0.0543
     19 C         140.2900  144.4000  163.9823 C.1     1  UNL1       -0.0388
     20 C         139.1234  144.8205  164.8262 C.3     1  UNL1        0.2814
     21 O         137.9233  143.9285  164.9447 O.3     1  UNL1       -0.4612
     22 C         137.9451  142.5572  164.3371 C.ar    1  UNL1        0.1400
     23 C         137.5097  142.3599  162.9152 C.ar    1  UNL1        0.0369
     24 C         137.5315  140.9887  162.3076 C.ar    1  UNL1        0.0031
     25 C         137.9886  139.8148  163.1217 C.ar    1  UNL1        0.0002
     26 C         138.4240  140.0120  164.5435 C.ar    1  UNL1        0.0031
     27 C         138.4022  141.3832  165.1512 C.ar    1  UNL1        0.0369
     28 C         141.5883  135.6856  155.4866 C.3     1  UNL1        0.0995
     29 C         143.6762  130.3136  157.1545 C.3     1  UNL1        0.1149
     30 N         143.1542  131.6566  156.7375 N.am    1  UNL1       -0.2752
     31 C         141.9824  131.7495  155.8058 C.3     1  UNL1        0.1108
     32 C         141.4603  133.0925  155.3888 C.3     1  UNL1        0.0945
     33 N         142.1102  134.3426  155.9035 N.3     1  UNL1       -0.2597
     34 C         143.2821  134.2496  156.8353 C.3     1  UNL1        0.1589
     35 C         143.8041  132.9066  157.2522 C.2     1  UNL1        0.2421
     36 O         144.9759  132.8137  158.1839 O.2     1  UNL1       -0.2734
@<TRIPOS>BOND
     1    29    30    1
     2    30    31    1
     3    31    32    1
     4    32    33    1
     5    33    28    1
     6    28     1    1
     7     1     2   ar
     8     2     3   ar
     9     3     4   ar
    10     4     5   ar
    11     5     6   ar
    12     5     7    1
    13     7     8    1
    14     8     9    2
    15     9    13    1
    16    13    14   ar
    17    14    15   ar
    18    15    16   ar
    19    16    18    1
    20    18    19    3
    21    19    20    1
    22    20    21    1
    23    21    22    1
    24    22    23   ar
    25    23    24   ar
    26    24    25   ar
    27    25    26   ar
    28    26    27   ar
    29    16    17   ar
    30     9    10    1
    31    10    11    2
    32    11    12    1
    33    33    34    1
    34    34    35    1
    35    35    36    2
    36    35    30   am
    37     6     1   ar
    38    12     8    1
    39    12     4    1
    40    17    13   ar
    41    27    22   ar
@<TRIPOS>MOLECULE
*****
 36 41 0 0 0
SMALL
GASTEIGER

@<TRIPOS>ATOM
      1 C         143.3264  139.0215  165.0535 C.ar    1  UNL1       -0.0065
      2 C         144.1760  140.2034  164.6911 C.ar    1  UNL1       -0.0032
      3 C         144.3891  140.5600  163.2498 C.ar    1  UNL1       -0.0026
      4 C         143.7527  139.7347  162.1709 C.ar    1  UNL1        0.0019
      5 C         142.9031  138.5529  162.5334 C.ar    1  UNL1       -0.0200
      6 C         142.6900  138.1963  163.9747 C.ar    1  UNL1       -0.0071
      7 C         142.4082  137.9304  161.2616 C.3     1  UNL1        0.0519
      8 C         142.9519  138.7275  160.1131 C.2     1  UNL1        0.0074
      9 C         142.9820  138.8354  158.6173 C.2     1  UNL1        0.0976
     10 N         143.8315  140.0172  158.2548 N.2     1  UNL1       -0.1526
     11 N         144.3265  140.6397  159.5266 N.2     1  UNL1       -0.1678
     12 C         143.7828  139.8427  160.6751 C.3     1  UNL1        0.1672
     13 C         142.2849  137.9218  157.6532 C.ar    1  UNL1        0.0265
     14 C         140.8893  138.0913  157.1298 C.ar    1  UNL1        0.0376
     15 S         140.6029  136.9526  156.1964 S.2     1  UNL1       -0.0780
     16 C         141.8214  136.0793  156.1429 C.ar    1  UNL1        0.0711
     17 C         142.8608  136.6783  157.0432 C.ar    1  UNL1        0.0168
     18 C         141.9736  134.8270  155.3315 C.1     1  UNL1       -0.0543
     19 C         142.1259  133.5745  154.5201 C.1     1  UNL1       -0.0388
     20 C         142.2781  132.3222  153.7087 C.3     1  UNL1        0.2814
     21 O         143.4318  131.3983  153.9646 O.3     1  UNL1       -0.4612
     22 C         143.8208  131.0564  155.3724 C.ar    1  UNL1        0.1400
     23 C         144.8197  131.9051  156.1017 C.ar    1  UNL1        0.0369
     24 C         145.2087  131.5632  157.5094 C.ar    1  UNL1        0.0031
     25 C         144.5989  130.3725  158.1878 C.ar    1  UNL1        0.0002
     26 C         143.6000  129.5238  157.4586 C.ar    1  UNL1        0.0031
     27 C         143.2110  129.8657  156.0508 C.ar    1  UNL1        0.0369
     28 C         143.1133  138.6649  166.4949 C.3     1  UNL1        0.0995
     29 C         139.8795  142.2747  170.0320 C.3     1  UNL1        0.1149
     30 N         140.6879  141.3722  169.1478 N.am    1  UNL1       -0.2752
     31 C         140.3704  141.2746  167.6850 C.3     1  UNL1        0.1108
     32 C         141.1789  140.3721  166.8007 C.3     1  UNL1        0.0945
     33 N         142.3048  139.5673  167.3791 N.3     1  UNL1       -0.2597
     34 C         142.6223  139.6650  168.8420 C.3     1  UNL1        0.1589
     35 C         141.8138  140.5674  169.7262 C.2     1  UNL1        0.2421
     36 O         142.1313  140.6651  171.1890 O.2     1  UNL1       -0.2734
@<TRIPOS>BOND
     1    29    30    1
     2    30    31    1
     3    31    32    1
     4    32    33    1
     5    33    28    1
     6    28     1    1
     7     1     2   ar
     8     2     3   ar
     9     3     4   ar
    10     4     5   ar
    11     5     6   ar
    12     5     7    1
    13     7     8    1
    14     8     9    2
    15     9    13    1
    16    13    14   ar
    17    14    15   ar
    18    15    16   ar
    19    16    18    1
    20    18    19    3
    21    19    20    1
    22    20    21    1
    23    21    22    1
    24    22    23   ar
    25    23    24   ar
    26    24    25   ar
    27    25    26   ar
    28    26    27   ar
    29    16    17   ar
    30     9    10    1
    31    10    11    2
    32    11    12    1
    33    33    34    1
    34    34    35    1
    35    35    36    2
    36    35    30   am
    37     6     1   ar
    38    12     8    1
    39    12     4    1
    40    17    13   ar
    41    27    22   ar
@<TRIPOS>MOLECULE
*****
 36 41 0 0 0
SMALL
GASTEIGER

@<TRIPOS>ATOM
      1 C         142.1711  137.2564  156.2207 C.ar    1  UNL1       -0.0065
      2 C         143.2401  138.1182  155.6172 C.ar    1  UNL1       -0.0032
      3 C         143.7251  139.3344  156.3490 C.ar    1  UNL1       -0.0026
      4 C         143.1411  139.6888  157.6844 C.ar    1  UNL1        0.0019
      5 C         142.0720  138.8270  158.2880 C.ar    1  UNL1       -0.0200
      6 C         141.5870  137.6108  157.5561 C.ar    1  UNL1       -0.0071
      7 C         141.6873  139.4231  159.6095 C.3     1  UNL1        0.0519
      8 C         142.5186  140.6533  159.8228 C.2     1  UNL1        0.0074
      9 C         142.7945  141.7820  160.7714 C.2     1  UNL1        0.0976
     10 N         143.8636  142.6438  160.1678 N.2     1  UNL1       -0.1526
     11 N         144.2483  142.0477  158.8462 N.2     1  UNL1       -0.1678
     12 C         143.4171  140.8176  158.6330 C.3     1  UNL1        0.1672
     13 C         142.1199  142.0091  162.0917 C.ar    1  UNL1        0.0265
     14 C         141.8903  143.3385  162.7475 C.ar    1  UNL1        0.0376
     15 S         141.1849  143.0976  164.0492 S.2     1  UNL1       -0.0780
     16 C         140.9784  141.6193  164.1978 C.ar    1  UNL1        0.0711
     17 C         141.5563  140.9466  162.9881 C.ar    1  UNL1        0.0168
     18 C         140.3113  140.9340  165.3534 C.1     1  UNL1       -0.0543
     19 C         139.6441  140.2488  166.5090 C.1     1  UNL1       -0.0388
     20 C         138.9770  139.5636  167.6645 C.3     1  UNL1        0.2814
     21 O         139.3358  139.9435  169.0706 O.3     1  UNL1       -0.4612
     22 C         140.5065  140.8452  169.3283 C.ar    1  UNL1        0.1400
     23 C         141.8966  140.2820  169.3496 C.ar    1  UNL1        0.0369
     24 C         143.0673  141.1836  169.6073 C.ar    1  UNL1        0.0031
     25 C         142.8479  142.6485  169.8436 C.ar    1  UNL1        0.0002
     26 C         141.4578  143.2118  169.8223 C.ar    1  UNL1        0.0031
     27 C         140.2871  142.3101  169.5646 C.ar    1  UNL1        0.0369
     28 C         141.6860  136.0401  155.4889 C.3     1  UNL1        0.0995
     29 C         143.5701  130.5906  157.1479 C.3     1  UNL1        0.1149
     30 N         143.0991  131.9529  156.7332 N.am    1  UNL1       -0.2752
     31 C         141.9485  132.0909  155.7807 C.3     1  UNL1        0.1108
     32 C         141.4775  133.4534  155.3659 C.3     1  UNL1        0.0945
     33 N         142.1570  134.6777  155.9037 N.3     1  UNL1       -0.2597
     34 C         143.3076  134.5397  156.8562 C.3     1  UNL1        0.1589
     35 C         143.7786  133.1773  157.2709 C.2     1  UNL1        0.2421
     36 O         144.9291  133.0393  158.2234 O.2     1  UNL1       -0.2734
@<TRIPOS>BOND
     1    29    30    1
     2    30    31    1
     3    31    32    1
     4    32    33    1
     5    33    28    1
     6    28     1    1
     7     1     2   ar
     8     2     3   ar
     9     3     4   ar
    10     4     5   ar
    11     5     6   ar
    12     5     7    1
    13     7     8    1
    14     8     9    2
    15     9    13    1
    16    13    14   ar
    17    14    15   ar
    18    15    16   ar
    19    16    18    1
    20    18    19    3
    21    19    20    1
    22    20    21    1
    23    21    22    1
    24    22    23   ar
    25    23    24   ar
    26    24    25   ar
    27    25    26   ar
    28    26    27   ar
    29    16    17   ar
    30     9    10    1
    31    10    11    2
    32    11    12    1
    33    33    34    1
    34    34    35    1
    35    35    36    2
    36    35    30   am
    37     6     1   ar
    38    12     8    1
    39    12     4    1
    40    17    13   ar
    41    27    22   ar
@<TRIPOS>MOLECULE
*****
 36 41 0 0 0
SMALL
GASTEIGER

@<TRIPOS>ATOM
      1 C         139.6058  141.0568  164.6936 C.ar    1  UNL1       -0.0065
      2 C         139.2344  142.3833  165.2871 C.ar    1  UNL1       -0.0032
      3 C         139.2091  143.6102  164.4246 C.ar    1  UNL1       -0.0026
      4 C         139.5552  143.5106  162.9685 C.ar    1  UNL1        0.0019
      5 C         139.9266  142.1841  162.3749 C.ar    1  UNL1       -0.0200
      6 C         139.9519  140.9572  163.2375 C.ar    1  UNL1       -0.0071
      7 C         140.2176  142.3932  160.9183 C.3     1  UNL1        0.0519
      8 C         140.0260  143.8490  160.6117 C.2     1  UNL1        0.0074
      9 C         140.0874  144.8779  159.5219 C.2     1  UNL1        0.0976
     10 N         139.7160  146.2044  160.1155 N.2     1  UNL1       -0.1526
     11 N         139.4250  145.9953  161.5720 N.2     1  UNL1       -0.1678
     12 C         139.6166  144.5396  161.8787 C.3     1  UNL1        0.1672
     13 C         140.4556  144.6247  158.0900 C.ar    1  UNL1        0.0265
     14 C         139.5329  144.1267  157.0172 C.ar    1  UNL1        0.0376
     15 S         140.3182  144.0193  155.7437 S.2     1  UNL1       -0.0780
     16 C         141.7261  144.4509  156.0294 C.ar    1  UNL1        0.0711
     17 C         141.8110  144.8251  157.4795 C.ar    1  UNL1        0.0168
     18 C         142.8515  144.4998  155.0389 C.1     1  UNL1       -0.0543
     19 C         143.9769  144.5486  154.0484 C.1     1  UNL1       -0.0388
     20 C         145.1023  144.5974  153.0579 C.3     1  UNL1        0.2814
     21 O         146.4755  145.0057  153.5025 O.3     1  UNL1       -0.4612
     22 C         147.4698  143.9628  153.9194 C.ar    1  UNL1        0.1400
     23 C         147.1976  143.1041  155.1189 C.ar    1  UNL1        0.0369
     24 C         148.1918  142.0612  155.5358 C.ar    1  UNL1        0.0031
     25 C         149.4582  141.8770  154.7534 C.ar    1  UNL1        0.0002
     26 C         149.7304  142.7357  153.5539 C.ar    1  UNL1        0.0031
     27 C         148.7362  143.7785  153.1370 C.ar    1  UNL1        0.0369
     28 C         139.6311  139.8298  165.5561 C.3     1  UNL1        0.0995
     29 C         142.7180  139.8426  170.7010 C.3     1  UNL1        0.1149
     30 N         141.9463  139.8394  169.4148 N.am    1  UNL1       -0.2752
     31 C         142.6727  139.7654  168.1046 C.3     1  UNL1        0.1108
     32 C         141.9009  139.7622  166.8183 C.3     1  UNL1        0.0945
     33 N         140.4028  139.8330  166.8423 N.3     1  UNL1       -0.2597
     34 C         139.6764  139.9070  168.1527 C.3     1  UNL1        0.1589
     35 C         140.4482  139.9102  169.4389 C.2     1  UNL1        0.2421
     36 O         139.7218  139.9842  170.7491 O.2     1  UNL1       -0.2734
@<TRIPOS>BOND
     1    29    30    1
     2    30    31    1
     3    31    32    1
     4    32    33    1
     5    33    28    1
     6    28     1    1
     7     1     2   ar
     8     2     3   ar
     9     3     4   ar
    10     4     5   ar
    11     5     6   ar
    12     5     7    1
    13     7     8    1
    14     8     9    2
    15     9    13    1
    16    13    14   ar
    17    14    15   ar
    18    15    16   ar
    19    16    18    1
    20    18    19    3
    21    19    20    1
    22    20    21    1
    23    21    22    1
    24    22    23   ar
    25    23    24   ar
    26    24    25   ar
    27    25    26   ar
    28    26    27   ar
    29    16    17   ar
    30     9    10    1
    31    10    11    2
    32    11    12    1
    33    33    34    1
    34    34    35    1
    35    35    36    2
    36    35    30   am
    37     6     1   ar
    38    12     8    1
    39    12     4    1
    40    17    13   ar
    41    27    22   ar
@<TRIPOS>MOLECULE
*****
 36 41 0 0 0
SMALL
GASTEIGER

@<TRIPOS>ATOM
      1 C         136.3536  142.2651  154.9770 C.ar    1  UNL1       -0.0065
      2 C         136.7339  143.5521  154.3069 C.ar    1  UNL1       -0.0032
      3 C         137.7910  144.4283  154.9109 C.ar    1  UNL1       -0.0026
      4 C         138.4678  144.0176  156.1850 C.ar    1  UNL1        0.0019
      5 C         138.0875  142.7306  156.8551 C.ar    1  UNL1       -0.0200
      6 C         137.0304  141.8544  156.2511 C.ar    1  UNL1       -0.0071
      7 C         138.9220  142.5885  158.0934 C.3     1  UNL1        0.0519
      8 C         139.8181  143.7877  158.1886 C.2     1  UNL1        0.0074
      9 C         140.8876  144.4410  159.0127 C.2     1  UNL1        0.0976
     10 N         141.2679  145.7280  158.3426 N.2     1  UNL1       -0.1526
     11 N         140.4334  145.8700  157.1043 N.2     1  UNL1       -0.1678
     12 C         139.5374  144.6709  157.0091 C.3     1  UNL1        0.1672
     13 C         141.4740  143.9020  160.2838 C.ar    1  UNL1        0.0265
     14 C         142.8673  143.3742  160.4578 C.ar    1  UNL1        0.0376
     15 S         143.0243  142.9421  161.8856 S.2     1  UNL1       -0.0780
     16 C         141.7281  143.2028  162.5940 C.ar    1  UNL1        0.0711
     17 C         140.7700  143.7960  161.6041 C.ar    1  UNL1        0.0168
     18 C         141.4405  142.9200  164.0388 C.1     1  UNL1       -0.0543
     19 C         141.1530  142.6371  165.4836 C.1     1  UNL1       -0.0388
     20 C         140.8654  142.3542  166.9283 C.3     1  UNL1        0.2814
     21 O         140.9268  140.9469  167.4437 O.3     1  UNL1       -0.4612
     22 C         140.2528  139.8410  166.6869 C.ar    1  UNL1        0.1400
     23 C         138.8208  139.4997  166.9745 C.ar    1  UNL1        0.0369
     24 C         138.1468  138.3938  166.2178 C.ar    1  UNL1        0.0031
     25 C         138.9048  137.6292  165.1734 C.ar    1  UNL1        0.0002
     26 C         140.3368  137.9705  164.8857 C.ar    1  UNL1        0.0031
     27 C         141.0108  139.0764  165.6425 C.ar    1  UNL1        0.0369
     28 C         135.2965  141.3888  154.3731 C.3     1  UNL1        0.0995
     29 C         130.6498  139.5647  157.7017 C.3     1  UNL1        0.1149
     30 N         131.8115  140.0207  156.8696 N.am    1  UNL1       -0.2752
     31 C         131.6108  141.0609  155.8077 C.3     1  UNL1        0.1108
     32 C         132.7725  141.5170  154.9755 C.3     1  UNL1        0.0945
     33 N         134.1349  140.9328  155.2052 N.3     1  UNL1       -0.2597
     34 C         134.3355  139.8925  156.2672 C.3     1  UNL1        0.1589
     35 C         133.1738  139.4365  157.0993 C.2     1  UNL1        0.2421
     36 O         133.3745  138.3963  158.1612 O.2     1  UNL1       -0.2734
@<TRIPOS>BOND
     1    29    30    1
     2    30    31    1
     3    31    32    1
     4    32    33    1
     5    33    28    1
     6    28     1    1
     7     1     2   ar
     8     2     3   ar
     9     3     4   ar
    10     4     5   ar
    11     5     6   ar
    12     5     7    1
    13     7     8    1
    14     8     9    2
    15     9    13    1
    16    13    14   ar
    17    14    15   ar
    18    15    16   ar
    19    16    18    1
    20    18    19    3
    21    19    20    1
    22    20    21    1
    23    21    22    1
    24    22    23   ar
    25    23    24   ar
    26    24    25   ar
    27    25    26   ar
    28    26    27   ar
    29    16    17   ar
    30     9    10    1
    31    10    11    2
    32    11    12    1
    33    33    34    1
    34    34    35    1
    35    35    36    2
    36    35    30   am
    37     6     1   ar
    38    12     8    1
    39    12     4    1
    40    17    13   ar
    41    27    22   ar
@<TRIPOS>MOLECULE
*****
 36 41 0 0 0
SMALL
GASTEIGER

@<TRIPOS>ATOM
      1 C         142.3733  136.6025  156.7438 C.ar    1  UNL1       -0.0065
      2 C         141.0603  136.6792  156.0228 C.ar    1  UNL1       -0.0032
      3 C         139.9718  137.5723  156.5399 C.ar    1  UNL1       -0.0026
      4 C         140.1964  138.3887  157.7781 C.ar    1  UNL1        0.0019
      5 C         141.5094  138.3119  158.4992 C.ar    1  UNL1       -0.0200
      6 C         142.5979  137.4188  157.9820 C.ar    1  UNL1       -0.0071
      7 C         141.4408  139.2269  159.6858 C.3     1  UNL1        0.0519
      8 C         140.0852  139.8691  159.6982 C.2     1  UNL1        0.0074
      9 C         139.2051  140.8315  160.4392 C.2     1  UNL1        0.0976
     10 N         137.8920  140.9082  159.7182 N.2     1  UNL1       -0.1526
     11 N         137.9607  139.9933  158.5315 N.2     1  UNL1       -0.1678
     12 C         139.3161  139.3511  158.5192 C.3     1  UNL1        0.1672
     13 C         139.5734  141.5848  161.6829 C.ar    1  UNL1        0.0265
     14 C         138.8495  142.7748  162.2399 C.ar    1  UNL1        0.0376
     15 S         139.5589  143.2059  163.4892 S.2     1  UNL1       -0.0780
     16 C         140.7212  142.2824  163.7044 C.ar    1  UNL1        0.0711
     17 C         140.7302  141.2806  162.5881 C.ar    1  UNL1        0.0168
     18 C         141.7024  142.3491  164.8371 C.1     1  UNL1       -0.0543
     19 C         142.6836  142.4157  165.9697 C.1     1  UNL1       -0.0388
     20 C         143.6647  142.4824  167.1024 C.3     1  UNL1        0.2814
     21 O         143.1867  142.7832  168.4920 O.3     1  UNL1       -0.4612
     22 C         142.0038  142.0511  169.0532 C.ar    1  UNL1        0.1400
     23 C         141.9956  140.5514  169.0839 C.ar    1  UNL1        0.0369
     24 C         140.8128  139.8192  169.6451 C.ar    1  UNL1        0.0031
     25 C         139.6383  140.5867  170.1756 C.ar    1  UNL1        0.0002
     26 C         139.6466  142.0864  170.1448 C.ar    1  UNL1        0.0031
     27 C         140.8293  142.8186  169.5837 C.ar    1  UNL1        0.0369
     28 C         143.4619  135.7093  156.2266 C.3     1  UNL1        0.0995
     29 C         142.9437  129.7523  156.7219 C.3     1  UNL1        0.1149
     30 N         143.0733  131.2416  156.5981 N.am    1  UNL1       -0.2752
     31 C         142.1252  132.0067  155.7231 C.3     1  UNL1        0.1108
     32 C         142.2547  133.4960  155.5992 C.3     1  UNL1        0.0945
     33 N         143.3324  134.2201  156.3504 N.3     1  UNL1       -0.2597
     34 C         144.2805  133.4549  157.2255 C.3     1  UNL1        0.1589
     35 C         144.1509  131.9657  157.3493 C.2     1  UNL1        0.2421
     36 O         145.0990  131.2006  158.2242 O.2     1  UNL1       -0.2734
@<TRIPOS>BOND
     1    29    30    1
     2    30    31    1
     3    31    32    1
     4    32    33    1
     5    33    28    1
     6    28     1    1
     7     1     2   ar
     8     2     3   ar
     9     3     4   ar
    10     4     5   ar
    11     5     6   ar
    12     5     7    1
    13     7     8    1
    14     8     9    2
    15     9    13    1
    16    13    14   ar
    17    14    15   ar
    18    15    16   ar
    19    16    18    1
    20    18    19    3
    21    19    20    1
    22    20    21    1
    23    21    22    1
    24    22    23   ar
    25    23    24   ar
    26    24    25   ar
    27    25    26   ar
    28    26    27   ar
    29    16    17   ar
    30     9    10    1
    31    10    11    2
    32    11    12    1
    33    33    34    1
    34    34    35    1
    35    35    36    2
    36    35    30   am
    37     6     1   ar
    38    12     8    1
    39    12     4    1
    40    17    13   ar
    41    27    22   ar
@<TRIPOS>MOLECULE
*****
 36 41 0 0 0
SMALL
GASTEIGER

@<TRIPOS>ATOM
      1 C         136.9972  141.2561  156.1398 C.ar    1  UNL1       -0.0065
      2 C         137.4702  142.4526  155.3688 C.ar    1  UNL1       -0.0032
      3 C         138.3947  143.4426  156.0131 C.ar    1  UNL1       -0.0026
      4 C         138.8463  143.2360  157.4285 C.ar    1  UNL1        0.0019
      5 C         138.3733  142.0394  158.1996 C.ar    1  UNL1       -0.0200
      6 C         137.4488  141.0495  157.5552 C.ar    1  UNL1       -0.0071
      7 C         138.9828  142.0999  159.5688 C.3     1  UNL1        0.0519
      8 C         139.8324  143.3338  159.6440 C.2     1  UNL1        0.0074
      9 C         140.7342  144.1337  160.5368 C.2     1  UNL1        0.0976
     10 N         141.2071  145.3302  159.7657 N.2     1  UNL1       -0.1526
     11 N         140.5977  145.2698  158.3964 N.2     1  UNL1       -0.1678
     12 C         139.7481  144.0360  158.3212 C.3     1  UNL1        0.1672
     13 C         141.0989  143.7963  161.9521 C.ar    1  UNL1        0.0265
     14 C         141.1774  144.7626  163.0967 C.ar    1  UNL1        0.0376
     15 S         141.5762  143.9969  164.3233 S.2     1  UNL1       -0.0780
     16 C         141.7443  142.5573  163.9368 C.ar    1  UNL1        0.0711
     17 C         141.4493  142.4333  162.4713 C.ar    1  UNL1        0.0168
     18 C         142.1381  141.4381  164.8546 C.1     1  UNL1       -0.0543
     19 C         142.5320  140.3189  165.7724 C.1     1  UNL1       -0.0388
     20 C         142.9259  139.1998  166.6902 C.3     1  UNL1        0.2814
     21 O         142.9643  139.4240  168.1728 O.3     1  UNL1       -0.4612
     22 C         142.1175  140.4966  168.7913 C.ar    1  UNL1        0.1400
     23 C         140.6669  140.2380  169.0726 C.ar    1  UNL1        0.0369
     24 C         139.8201  141.3106  169.6911 C.ar    1  UNL1        0.0031
     25 C         140.4238  142.6416  170.0283 C.ar    1  UNL1        0.0002
     26 C         141.8744  142.9001  169.7471 C.ar    1  UNL1        0.0031
     27 C         142.7212  141.8276  169.1286 C.ar    1  UNL1        0.0369
     28 C         136.0727  140.2661  155.4955 C.3     1  UNL1        0.0995
     29 C         130.1459  140.7261  156.3087 C.3     1  UNL1        0.1149
     30 N         131.6276  140.6111  156.1054 N.am    1  UNL1       -0.2752
     31 C         132.3091  141.4493  155.0648 C.3     1  UNL1        0.1108
     32 C         133.7908  141.3343  154.8615 C.3     1  UNL1        0.0945
     33 N         134.5910  140.3811  155.6988 N.3     1  UNL1       -0.2597
     34 C         133.9094  139.5429  156.7395 C.3     1  UNL1        0.1589
     35 C         132.4278  139.6579  156.9428 C.2     1  UNL1        0.2421
     36 O         131.7463  138.8197  157.9834 O.2     1  UNL1       -0.2734
@<TRIPOS>BOND
     1    29    30    1
     2    30    31    1
     3    31    32    1
     4    32    33    1
     5    33    28    1
     6    28     1    1
     7     1     2   ar
     8     2     3   ar
     9     3     4   ar
    10     4     5   ar
    11     5     6   ar
    12     5     7    1
    13     7     8    1
    14     8     9    2
    15     9    13    1
    16    13    14   ar
    17    14    15   ar
    18    15    16   ar
    19    16    18    1
    20    18    19    3
    21    19    20    1
    22    20    21    1
    23    21    22    1
    24    22    23   ar
    25    23    24   ar
    26    24    25   ar
    27    25    26   ar
    28    26    27   ar
    29    16    17   ar
    30     9    10    1
    31    10    11    2
    32    11    12    1
    33    33    34    1
    34    34    35    1
    35    35    36    2
    36    35    30   am
    37     6     1   ar
    38    12     8    1
    39    12     4    1
    40    17    13   ar
    41    27    22   ar
