@<TRIPOS>MOLECULE
*****
 25 27 0 0 0
SMALL
GASTEIGER

@<TRIPOS>ATOM
      1 O         144.5647  143.1572  164.9780 O.2     1  UNL1       -0.2651
      2 C         143.1685  143.6176  164.6801 C.ar    1  UNL1        0.2807
      3 C         142.9407  144.7561  163.7305 C.ar    1  UNL1        0.0674
      4 C         141.5445  145.2165  163.4326 C.ar    1  UNL1        0.0641
      5 C         140.3761  144.5382  164.0843 C.ar    1  UNL1        0.2424
      6 N         140.6039  143.3996  165.0339 N.ar    1  UNL1       -0.1248
      7 N         142.0001  142.9393  165.3318 N.ar    1  UNL1       -0.1916
      8 C         142.2278  141.8007  166.2814 C.ar    1  UNL1        0.0871
      9 C         142.0678  140.3862  165.8084 C.ar    1  UNL1        0.0216
     10 C         142.2956  139.2476  166.7580 C.ar    1  UNL1        0.0321
     11 C         142.6833  139.5234  168.1805 C.ar    1  UNL1        0.1507
     12 F         142.9110  138.3848  169.1301 F       1  UNL1       -0.2033
     13 C         142.8433  140.9379  168.6535 C.ar    1  UNL1        0.0865
     14 CL        143.2311  141.2137  170.0760 Cl      1  UNL1       -0.0799
     15 C         142.6156  142.0765  167.7039 C.ar    1  UNL1        0.0329
     16 O         138.9799  144.9985  163.7864 O.3     1  UNL1       -0.4592
     17 C         138.0523  144.1202  163.0003 C.3     1  UNL1        0.2086
     18 C         137.5501  142.8378  163.5946 C.3     1  UNL1        0.0647
     19 C         137.7535  141.5429  162.8653 C.3     1  UNL1        0.0759
     20 N         138.1413  140.3080  163.6235 N.3     1  UNL1       -0.2726
     21 C         138.5075  139.0567  162.8819 C.3     1  UNL1        0.0721
     22 C         138.8953  137.8219  163.6401 C.3     1  UNL1        0.0174
     23 C         138.9168  137.8384  165.1398 C.3     1  UNL1        0.0029
     24 C         138.5506  139.0898  165.8814 C.3     1  UNL1        0.0174
     25 C         138.1628  140.3246  165.1233 C.3     1  UNL1        0.0721
@<TRIPOS>BOND
     1     1     2    2
     2     2     3   ar
     3     3     4   ar
     4     4     5   ar
     5     5    16    1
     6    16    17    1
     7    17    18    1
     8    18    19    1
     9    19    20    1
    10    20    21    1
    11    21    22    1
    12    22    23    1
    13    23    24    1
    14    24    25    1
    15     5     6   ar
    16     6     7   ar
    17     7     8    1
    18     8     9   ar
    19     9    10   ar
    20    10    11   ar
    21    11    12    1
    22    11    13   ar
    23    13    14    1
    24    13    15   ar
    25     7     2   ar
    26    15     8   ar
    27    25    20    1
@<TRIPOS>MOLECULE
*****
 25 27 0 0 0
SMALL
GASTEIGER

@<TRIPOS>ATOM
      1 O         143.5063  137.9451  166.0684 O.2     1  UNL1       -0.2651
      2 C         143.8044  139.2584  165.4079 C.ar    1  UNL1        0.2807
      3 C         144.9631  139.3766  164.4626 C.ar    1  UNL1        0.0674
      4 C         145.2613  140.6899  163.8020 C.ar    1  UNL1        0.0641
      5 C         144.4008  141.8850  164.0867 C.ar    1  UNL1        0.2424
      6 N         143.2421  141.7669  165.0319 N.ar    1  UNL1       -0.1248
      7 N         142.9440  140.4536  165.6925 N.ar    1  UNL1       -0.1916
      8 C         141.7852  140.3355  166.6378 C.ar    1  UNL1        0.0871
      9 C         141.9145  140.8298  168.0481 C.ar    1  UNL1        0.0216
     10 C         140.7559  140.7117  168.9934 C.ar    1  UNL1        0.0321
     11 C         139.4679  140.0994  168.5284 C.ar    1  UNL1        0.1507
     12 F         138.3092  139.9813  169.4736 F       1  UNL1       -0.2033
     13 C         139.3386  139.6051  167.1180 C.ar    1  UNL1        0.0865
     14 CL        138.0507  138.9928  166.6530 Cl      1  UNL1       -0.0799
     15 C         140.4973  139.7232  166.1728 C.ar    1  UNL1        0.0329
     16 O         144.6989  143.1983  163.4261 O.3     1  UNL1       -0.4592
     17 C         143.5831  144.0180  162.8491 C.3     1  UNL1        0.2086
     18 C         142.8978  145.0516  163.6930 C.3     1  UNL1        0.0647
     19 C         141.5327  145.5444  163.3139 C.3     1  UNL1        0.0759
     20 N         140.3171  144.7510  163.6921 N.3     1  UNL1       -0.2726
     21 C         139.0444  144.9126  162.9150 C.3     1  UNL1        0.0721
     22 C         137.8288  144.1192  163.2932 C.3     1  UNL1        0.0174
     23 C         137.8860  143.1643  164.4486 C.3     1  UNL1        0.0029
     24 C         139.1588  143.0028  165.2258 C.3     1  UNL1        0.0174
     25 C         140.3744  143.7961  164.8476 C.3     1  UNL1        0.0721
@<TRIPOS>BOND
     1     1     2    2
     2     2     3   ar
     3     3     4   ar
     4     4     5   ar
     5     5    16    1
     6    16    17    1
     7    17    18    1
     8    18    19    1
     9    19    20    1
    10    20    21    1
    11    21    22    1
    12    22    23    1
    13    23    24    1
    14    24    25    1
    15     5     6   ar
    16     6     7   ar
    17     7     8    1
    18     8     9   ar
    19     9    10   ar
    20    10    11   ar
    21    11    12    1
    22    11    13   ar
    23    13    14    1
    24    13    15   ar
    25     7     2   ar
    26    15     8   ar
    27    25    20    1
@<TRIPOS>MOLECULE
*****
 25 27 0 0 0
SMALL
GASTEIGER

@<TRIPOS>ATOM
      1 O         143.5855  138.0469  166.2521 O.2     1  UNL1       -0.2651
      2 C         143.7060  139.1537  165.2468 C.ar    1  UNL1        0.2807
      3 C         145.0375  139.4655  164.6306 C.ar    1  UNL1        0.0674
      4 C         145.1580  140.5722  163.6253 C.ar    1  UNL1        0.0641
      5 C         143.9469  141.3671  163.2362 C.ar    1  UNL1        0.2424
      6 N         142.6154  141.0553  163.8524 N.ar    1  UNL1       -0.1248
      7 N         142.4949  139.9486  164.8577 N.ar    1  UNL1       -0.1916
      8 C         141.1633  139.6368  165.4740 C.ar    1  UNL1        0.0871
      9 C         140.1339  138.8772  164.6908 C.ar    1  UNL1        0.0216
     10 C         138.8024  138.5654  165.3070 C.ar    1  UNL1        0.0321
     11 C         138.5002  139.0132  166.7064 C.ar    1  UNL1        0.1507
     12 F         137.1686  138.7014  167.3225 F       1  UNL1       -0.2033
     13 C         139.5296  139.7727  167.4895 C.ar    1  UNL1        0.0865
     14 CL        139.2274  140.2205  168.8889 Cl      1  UNL1       -0.0799
     15 C         140.8612  140.0845  166.8733 C.ar    1  UNL1        0.0329
     16 O         144.0674  142.4738  162.2309 O.3     1  UNL1       -0.4592
     17 C         144.0944  143.9023  162.6876 C.3     1  UNL1        0.2086
     18 C         142.8343  144.7161  162.6798 C.3     1  UNL1        0.0647
     19 C         142.0459  144.8898  163.9441 C.3     1  UNL1        0.0759
     20 N         140.6434  144.3649  164.0313 N.3     1  UNL1       -0.2726
     21 C         139.5867  144.8914  163.1061 C.3     1  UNL1        0.0721
     22 C         138.1842  144.3665  163.1933 C.3     1  UNL1        0.0174
     23 C         137.8384  143.3153  164.2059 C.3     1  UNL1        0.0029
     24 C         138.8952  142.7888  165.1312 C.3     1  UNL1        0.0174
     25 C         140.2977  143.3136  165.0439 C.3     1  UNL1        0.0721
@<TRIPOS>BOND
     1     1     2    2
     2     2     3   ar
     3     3     4   ar
     4     4     5   ar
     5     5    16    1
     6    16    17    1
     7    17    18    1
     8    18    19    1
     9    19    20    1
    10    20    21    1
    11    21    22    1
    12    22    23    1
    13    23    24    1
    14    24    25    1
    15     5     6   ar
    16     6     7   ar
    17     7     8    1
    18     8     9   ar
    19     9    10   ar
    20    10    11   ar
    21    11    12    1
    22    11    13   ar
    23    13    14    1
    24    13    15   ar
    25     7     2   ar
    26    15     8   ar
    27    25    20    1
@<TRIPOS>MOLECULE
*****
 25 27 0 0 0
SMALL
GASTEIGER

@<TRIPOS>ATOM
      1 O         137.6572  143.1761  163.8400 O.2     1  UNL1       -0.2651
      2 C         139.1293  143.4606  163.7929 C.ar    1  UNL1        0.2807
      3 C         139.6184  144.8137  163.3688 C.ar    1  UNL1        0.0674
      4 C         141.0904  145.0982  163.3217 C.ar    1  UNL1        0.0641
      5 C         142.0733  144.0297  163.6987 C.ar    1  UNL1        0.2424
      6 N         141.5841  142.6766  164.1228 N.ar    1  UNL1       -0.1248
      7 N         140.1121  142.3921  164.1699 N.ar    1  UNL1       -0.1916
      8 C         139.6230  141.0389  164.5940 C.ar    1  UNL1        0.0871
      9 C         139.4369  140.7312  166.0503 C.ar    1  UNL1        0.0216
     10 C         138.9478  139.3782  166.4744 C.ar    1  UNL1        0.0321
     11 C         138.6447  138.3327  165.4423 C.ar    1  UNL1        0.1507
     12 F         138.1556  136.9796  165.8664 F       1  UNL1       -0.2033
     13 C         138.8308  138.6404  163.9860 C.ar    1  UNL1        0.0865
     14 CL        138.5277  137.5951  162.9539 Cl      1  UNL1       -0.0799
     15 C         139.3199  139.9936  163.5619 C.ar    1  UNL1        0.0329
     16 O         143.5453  144.3142  163.6516 O.3     1  UNL1       -0.4592
     17 C         144.4462  143.4669  162.8029 C.3     1  UNL1        0.2086
     18 C         145.1820  142.3107  163.4128 C.3     1  UNL1        0.0647
     19 C         144.9855  140.9262  162.8699 C.3     1  UNL1        0.0759
     20 N         144.0706  139.9678  163.5730 N.3     1  UNL1       -0.2726
     21 C         143.9248  140.0276  165.0647 C.3     1  UNL1        0.0721
     22 C         143.0099  139.0692  165.7678 C.3     1  UNL1        0.0174
     23 C         142.2408  138.0510  164.9793 C.3     1  UNL1        0.0029
     24 C         142.3866  137.9912  163.4875 C.3     1  UNL1        0.0174
     25 C         143.3015  138.9496  162.7844 C.3     1  UNL1        0.0721
@<TRIPOS>BOND
     1     1     2    2
     2     2     3   ar
     3     3     4   ar
     4     4     5   ar
     5     5    16    1
     6    16    17    1
     7    17    18    1
     8    18    19    1
     9    19    20    1
    10    20    21    1
    11    21    22    1
    12    22    23    1
    13    23    24    1
    14    24    25    1
    15     5     6   ar
    16     6     7   ar
    17     7     8    1
    18     8     9   ar
    19     9    10   ar
    20    10    11   ar
    21    11    12    1
    22    11    13   ar
    23    13    14    1
    24    13    15   ar
    25     7     2   ar
    26    15     8   ar
    27    25    20    1
@<TRIPOS>MOLECULE
*****
 25 27 0 0 0
SMALL
GASTEIGER

@<TRIPOS>ATOM
      1 O         138.9986  144.0783  165.3562 O.2     1  UNL1       -0.2651
      2 C         140.4341  143.8664  164.9762 C.ar    1  UNL1        0.2807
      3 C         141.0214  144.6152  163.8168 C.ar    1  UNL1        0.0674
      4 C         142.4569  144.4034  163.4368 C.ar    1  UNL1        0.0641
      5 C         143.3052  143.4428  164.2163 C.ar    1  UNL1        0.2424
      6 N         142.7179  142.6940  165.3758 N.ar    1  UNL1       -0.1248
      7 N         141.2824  142.9058  165.7557 N.ar    1  UNL1       -0.1916
      8 C         140.6951  142.1570  166.9153 C.ar    1  UNL1        0.0871
      9 C         140.1861  140.7589  166.7248 C.ar    1  UNL1        0.0216
     10 C         139.5989  140.0101  167.8842 C.ar    1  UNL1        0.0321
     11 C         139.5206  140.6593  169.2343 C.ar    1  UNL1        0.1507
     12 F         138.9334  139.9105  170.3937 F       1  UNL1       -0.2033
     13 C         140.0296  142.0574  169.4247 C.ar    1  UNL1        0.0865
     14 CL        139.9513  142.7067  170.7746 Cl      1  UNL1       -0.0799
     15 C         140.6169  142.8063  168.2652 C.ar    1  UNL1        0.0329
     16 O         144.7407  143.2310  163.8364 O.3     1  UNL1       -0.4592
     17 C         145.4128  141.9254  164.1425 C.3     1  UNL1        0.2086
     18 C         145.0154  140.6848  163.3988 C.3     1  UNL1        0.0647
     19 C         144.6907  139.4297  164.1534 C.3     1  UNL1        0.0759
     20 N         143.3976  138.7139  163.8972 N.3     1  UNL1       -0.2726
     21 C         142.5172  138.3213  165.0464 C.3     1  UNL1        0.0721
     22 C         141.2241  137.6055  164.7902 C.3     1  UNL1        0.0174
     23 C         140.8115  137.2822  163.3848 C.3     1  UNL1        0.0029
     24 C         141.6920  137.6748  162.2355 C.3     1  UNL1        0.0174
     25 C         142.9850  138.3906  162.4917 C.3     1  UNL1        0.0721
@<TRIPOS>BOND
     1     1     2    2
     2     2     3   ar
     3     3     4   ar
     4     4     5   ar
     5     5    16    1
     6    16    17    1
     7    17    18    1
     8    18    19    1
     9    19    20    1
    10    20    21    1
    11    21    22    1
    12    22    23    1
    13    23    24    1
    14    24    25    1
    15     5     6   ar
    16     6     7   ar
    17     7     8    1
    18     8     9   ar
    19     9    10   ar
    20    10    11   ar
    21    11    12    1
    22    11    13   ar
    23    13    14    1
    24    13    15   ar
    25     7     2   ar
    26    15     8   ar
    27    25    20    1
@<TRIPOS>MOLECULE
*****
 25 27 0 0 0
SMALL
GASTEIGER

@<TRIPOS>ATOM
      1 O         142.7283  139.0819  165.7660 O.2     1  UNL1       -0.2651
      2 C         142.1316  140.1309  164.8752 C.ar    1  UNL1        0.2807
      3 C         142.0379  139.8947  163.3969 C.ar    1  UNL1        0.0674
      4 C         141.4412  140.9437  162.5061 C.ar    1  UNL1        0.0641
      5 C         140.9382  142.2289  163.0935 C.ar    1  UNL1        0.2424
      6 N         141.0319  142.4651  164.5718 N.ar    1  UNL1       -0.1248
      7 N         141.6286  141.4161  165.4626 N.ar    1  UNL1       -0.1916
      8 C         141.7222  141.6523  166.9410 C.ar    1  UNL1        0.0871
      9 C         143.0107  142.1274  167.5444 C.ar    1  UNL1        0.0216
     10 C         143.1044  142.3636  169.0227 C.ar    1  UNL1        0.0321
     11 C         141.9096  142.1248  169.8977 C.ar    1  UNL1        0.1507
     12 F         142.0033  142.3611  171.3759 F       1  UNL1       -0.2033
     13 C         140.6211  141.6498  169.2942 C.ar    1  UNL1        0.0865
     14 CL        139.4263  141.4110  170.1691 Cl      1  UNL1       -0.0799
     15 C         140.5275  141.4135  167.8159 C.ar    1  UNL1        0.0329
     16 O         140.3415  143.2779  162.2027 O.3     1  UNL1       -0.4592
     17 C         138.8514  143.4128  162.0968 C.3     1  UNL1        0.2086
     18 C         138.0018  142.1960  161.8781 C.3     1  UNL1        0.0647
     19 C         137.3518  141.5154  163.0462 C.3     1  UNL1        0.0759
     20 N         137.9431  140.2547  163.6038 N.3     1  UNL1       -0.2726
     21 C         138.2636  139.1087  162.6905 C.3     1  UNL1        0.0721
     22 C         138.8549  137.8480  163.2481 C.3     1  UNL1        0.0174
     23 C         139.1258  137.7333  164.7190 C.3     1  UNL1        0.0029
     24 C         138.8053  138.8792  165.6323 C.3     1  UNL1        0.0174
     25 C         138.2140  140.1400  165.0747 C.3     1  UNL1        0.0721
@<TRIPOS>BOND
     1     1     2    2
     2     2     3   ar
     3     3     4   ar
     4     4     5   ar
     5     5    16    1
     6    16    17    1
     7    17    18    1
     8    18    19    1
     9    19    20    1
    10    20    21    1
    11    21    22    1
    12    22    23    1
    13    23    24    1
    14    24    25    1
    15     5     6   ar
    16     6     7   ar
    17     7     8    1
    18     8     9   ar
    19     9    10   ar
    20    10    11   ar
    21    11    12    1
    22    11    13   ar
    23    13    14    1
    24    13    15   ar
    25     7     2   ar
    26    15     8   ar
    27    25    20    1
@<TRIPOS>MOLECULE
*****
 25 27 0 0 0
SMALL
GASTEIGER

@<TRIPOS>ATOM
      1 O         143.1452  141.8289  167.0505 O.2     1  UNL1       -0.2651
      2 C         143.0874  142.4982  165.7093 C.ar    1  UNL1        0.2807
      3 C         144.1537  143.4755  165.3123 C.ar    1  UNL1        0.0674
      4 C         144.0960  144.1448  163.9711 C.ar    1  UNL1        0.0641
      5 C         142.9719  143.8368  163.0270 C.ar    1  UNL1        0.2424
      6 N         141.9055  142.8594  163.4240 N.ar    1  UNL1       -0.1248
      7 N         141.9633  142.1902  164.7652 N.ar    1  UNL1       -0.1916
      8 C         140.8969  141.2128  165.1622 C.ar    1  UNL1        0.0871
      9 C         140.3497  141.2261  166.5587 C.ar    1  UNL1        0.0216
     10 C         139.2833  140.2487  166.9558 C.ar    1  UNL1        0.0321
     11 C         138.7641  139.2581  165.9562 C.ar    1  UNL1        0.1507
     12 F         137.6977  138.2808  166.3532 F       1  UNL1       -0.2033
     13 C         139.3113  139.2448  164.5596 C.ar    1  UNL1        0.0865
     14 CL        138.7921  138.2542  163.5601 Cl      1  UNL1       -0.0799
     15 C         140.3777  140.2222  164.1626 C.ar    1  UNL1        0.0329
     16 O         142.9141  144.5061  161.6858 O.3     1  UNL1       -0.4592
     17 C         141.7750  144.2194  160.7530 C.3     1  UNL1        0.2086
     18 C         140.6633  145.2145  160.5986 C.3     1  UNL1        0.0647
     19 C         139.9305  145.7140  161.8084 C.3     1  UNL1        0.0759
     20 N         139.1805  144.7519  162.6813 N.3     1  UNL1       -0.2726
     21 C         139.1371  144.9631  164.1656 C.3     1  UNL1        0.0721
     22 C         138.3870  144.0010  165.0385 C.3     1  UNL1        0.0174
     23 C         137.6804  142.8277  164.4269 C.3     1  UNL1        0.0029
     24 C         137.7238  142.6165  162.9424 C.3     1  UNL1        0.0174
     25 C         138.4738  143.5786  162.0696 C.3     1  UNL1        0.0721
@<TRIPOS>BOND
     1     1     2    2
     2     2     3   ar
     3     3     4   ar
     4     4     5   ar
     5     5    16    1
     6    16    17    1
     7    17    18    1
     8    18    19    1
     9    19    20    1
    10    20    21    1
    11    21    22    1
    12    22    23    1
    13    23    24    1
    14    24    25    1
    15     5     6   ar
    16     6     7   ar
    17     7     8    1
    18     8     9   ar
    19     9    10   ar
    20    10    11   ar
    21    11    12    1
    22    11    13   ar
    23    13    14    1
    24    13    15   ar
    25     7     2   ar
    26    15     8   ar
    27    25    20    1
@<TRIPOS>MOLECULE
*****
 25 27 0 0 0
SMALL
GASTEIGER

@<TRIPOS>ATOM
      1 O         139.1943  143.8248  165.6422 O.2     1  UNL1       -0.2651
      2 C         138.8716  142.5689  164.8882 C.ar    1  UNL1        0.2807
      3 C         137.8589  142.5975  163.7820 C.ar    1  UNL1        0.0674
      4 C         137.5362  141.3416  163.0279 C.ar    1  UNL1        0.0641
      5 C         138.2262  140.0571  163.3800 C.ar    1  UNL1        0.2424
      6 N         139.2388  140.0285  164.4862 N.ar    1  UNL1       -0.1248
      7 N         139.5615  141.2844  165.2403 N.ar    1  UNL1       -0.1916
      8 C         140.5743  141.2558  166.3465 C.ar    1  UNL1        0.0871
      9 C         141.8546  142.0255  166.2113 C.ar    1  UNL1        0.0216
     10 C         142.8673  141.9969  167.3174 C.ar    1  UNL1        0.0321
     11 C         142.5997  141.1985  168.5588 C.ar    1  UNL1        0.1507
     12 F         143.6124  141.1699  169.6650 F       1  UNL1       -0.2033
     13 C         141.3194  140.4287  168.6940 C.ar    1  UNL1        0.0865
     14 CL        141.0518  139.6303  169.9353 Cl      1  UNL1       -0.0799
     15 C         140.3067  140.4574  167.5878 C.ar    1  UNL1        0.0329
     16 O         137.9035  138.8012  162.6259 O.3     1  UNL1       -0.4592
     17 C         138.7628  138.3776  161.4718 C.3     1  UNL1        0.2086
     18 C         140.2572  138.4314  161.5900 C.3     1  UNL1        0.0647
     19 C         140.9680  137.5129  162.5394 C.3     1  UNL1        0.0759
     20 N         142.0329  138.0516  163.4481 N.3     1  UNL1       -0.2726
     21 C         141.9384  137.8294  164.9285 C.3     1  UNL1        0.0721
     22 C         143.0033  138.3680  165.8373 C.3     1  UNL1        0.0174
     23 C         144.1627  139.1288  165.2656 C.3     1  UNL1        0.0029
     24 C         144.2573  139.3510  163.7851 C.3     1  UNL1        0.0174
     25 C         143.1924  138.8124  162.8764 C.3     1  UNL1        0.0721
@<TRIPOS>BOND
     1     1     2    2
     2     2     3   ar
     3     3     4   ar
     4     4     5   ar
     5     5    16    1
     6    16    17    1
     7    17    18    1
     8    18    19    1
     9    19    20    1
    10    20    21    1
    11    21    22    1
    12    22    23    1
    13    23    24    1
    14    24    25    1
    15     5     6   ar
    16     6     7   ar
    17     7     8    1
    18     8     9   ar
    19     9    10   ar
    20    10    11   ar
    21    11    12    1
    22    11    13   ar
    23    13    14    1
    24    13    15   ar
    25     7     2   ar
    26    15     8   ar
    27    25    20    1
@<TRIPOS>MOLECULE
*****
 25 27 0 0 0
SMALL
GASTEIGER

@<TRIPOS>ATOM
      1 O         143.7732  144.1122  162.0014 O.2     1  UNL1       -0.2651
      2 C         143.9415  142.8383  162.7753 C.ar    1  UNL1        0.2807
      3 C         145.2992  142.2144  162.9067 C.ar    1  UNL1        0.0674
      4 C         145.4675  140.9405  163.6806 C.ar    1  UNL1        0.0641
      5 C         144.2781  140.2905  164.3229 C.ar    1  UNL1        0.2424
      6 N         142.9203  140.9144  164.1915 N.ar    1  UNL1       -0.1248
      7 N         142.7521  142.1883  163.4176 N.ar    1  UNL1       -0.1916
      8 C         141.3942  142.8122  163.2862 C.ar    1  UNL1        0.0871
      9 C         140.6289  142.6793  162.0030 C.ar    1  UNL1        0.0216
     10 C         139.2711  143.3031  161.8715 C.ar    1  UNL1        0.0321
     11 C         138.6787  144.0599  163.0233 C.ar    1  UNL1        0.1507
     12 F         137.3210  144.6837  162.8918 F       1  UNL1       -0.2033
     13 C         139.4441  144.1928  164.3064 C.ar    1  UNL1        0.0865
     14 CL        138.8517  144.9495  165.4581 Cl      1  UNL1       -0.0799
     15 C         140.8019  143.5689  164.4379 C.ar    1  UNL1        0.0329
     16 O         144.4464  139.0166  165.0968 O.3     1  UNL1       -0.4592
     17 C         143.2970  138.4593  165.8831 C.3     1  UNL1        0.2086
     18 C         142.9637  139.0287  167.2302 C.3     1  UNL1        0.0647
     19 C         141.6672  139.7541  167.4379 C.3     1  UNL1        0.0759
     20 N         141.6270  140.9899  168.2872 N.3     1  UNL1       -0.2726
     21 C         140.4923  141.9606  168.1456 C.3     1  UNL1        0.0721
     22 C         140.4521  143.1964  168.9949 C.3     1  UNL1        0.0174
     23 C         141.5465  143.4614  169.9857 C.3     1  UNL1        0.0029
     24 C         142.6813  142.4907  170.1273 C.3     1  UNL1        0.0174
     25 C         142.7216  141.2549  169.2781 C.3     1  UNL1        0.0721
@<TRIPOS>BOND
     1     1     2    2
     2     2     3   ar
     3     3     4   ar
     4     4     5   ar
     5     5    16    1
     6    16    17    1
     7    17    18    1
     8    18    19    1
     9    19    20    1
    10    20    21    1
    11    21    22    1
    12    22    23    1
    13    23    24    1
    14    24    25    1
    15     5     6   ar
    16     6     7   ar
    17     7     8    1
    18     8     9   ar
    19     9    10   ar
    20    10    11   ar
    21    11    12    1
    22    11    13   ar
    23    13    14    1
    24    13    15   ar
    25     7     2   ar
    26    15     8   ar
    27    25    20    1
