@<TRIPOS>MOLECULE
*****
 29 32 0 0 0
SMALL
GASTEIGER

@<TRIPOS>ATOM
      1 C         139.4036  139.6275  167.4517 C.ar    1  UNL1        0.1317
      2 C         138.2309  138.8524  166.9285 C.ar    1  UNL1        0.0548
      3 C         138.1862  138.4422  165.4864 C.ar    1  UNL1        0.1049
      4 N         139.3144  138.8070  164.5676 N.ar    1  UNL1       -0.2105
      5 N         139.5469  138.5424  163.1094 N.ar    1  UNL1       -0.1621
      6 C         140.8633  139.1540  162.7316 C.ar    1  UNL1        0.1236
      7 C         141.4445  139.7965  163.9562 C.ar    1  UNL1        0.0567
      8 C         140.4871  139.5820  165.0908 C.ar    1  UNL1        0.1666
      9 N         140.5318  139.9923  166.5329 N.ar    1  UNL1       -0.2120
     10 C         142.7531  140.5255  164.0326 C.ar    1  UNL1        0.0045
     11 C         144.0419  139.7684  163.9070 C.ar    1  UNL1        0.0001
     12 C         145.3506  140.4974  163.9835 C.ar    1  UNL1       -0.0001
     13 C         145.3706  141.9836  164.1856 C.ar    1  UNL1        0.0039
     14 C         144.0818  142.7407  164.3112 C.ar    1  UNL1        0.0714
     15 C         142.7732  142.0117  164.2348 C.ar    1  UNL1        0.0040
     16 C         144.1018  144.2270  164.5134 C.3     1  UNL1        0.4186
     17 F         144.1217  145.7131  164.7154 F       1  UNL1       -0.1659
     18 F         143.2879  144.4074  163.2664 F       1  UNL1       -0.1659
     19 F         144.9157  144.0464  165.7604 F       1  UNL1       -0.1659
     20 N         139.4483  140.0378  168.8939 N.pl3   1  UNL1       -0.3196
     21 H         138.7578  139.7177  169.5184 H       1  UNL1        0.1481
     22 O         143.8354  143.6296  170.8565 O.3     1  UNL1       -0.3845
     23 C         142.7386  142.7317  170.3659 C.3     1  UNL1        0.1106
     24 C         142.9545  141.2486  170.3048 C.3     1  UNL1        0.0309
     25 C         141.8577  140.3506  169.8141 C.3     1  UNL1        0.0220
     26 C         140.5451  140.9357  169.3845 C.3     1  UNL1        0.0705
     27 C         140.3292  142.4189  169.4456 C.3     1  UNL1        0.0220
     28 C         141.4259  143.3169  169.9363 C.3     1  UNL1        0.0309
     29 H         144.6098  143.0951  171.0920 H       1  UNL1        0.2103
@<TRIPOS>BOND
     1    23    22    1
     2    23    24    1
     3    24    25    1
     4    25    26    1
     5    26    20    1
     6    20     1    1
     7     1     2   ar
     8     2     3   ar
     9     3     4   ar
    10     4     5   ar
    11     5     6   ar
    12     6     7   ar
    13     7    10    1
    14    10    11   ar
    15    11    12   ar
    16    12    13   ar
    17    13    14   ar
    18    14    16    1
    19    16    17    1
    20    16    18    1
    21    16    19    1
    22    14    15   ar
    23     7     8   ar
    24     8     9   ar
    25    26    27    1
    26    27    28    1
    27    28    23    1
    28     9     1   ar
    29     8     4   ar
    30    15    10   ar
    31    22    29    1
    32    20    21    1
@<TRIPOS>MOLECULE
*****
 29 32 0 0 0
SMALL
GASTEIGER

@<TRIPOS>ATOM
      1 C         143.4701  142.5615  166.5312 C.ar    1  UNL1        0.1317
      2 C         144.4220  143.4487  165.7850 C.ar    1  UNL1        0.0548
      3 C         144.4803  143.3944  164.2872 C.ar    1  UNL1        0.1049
      4 N         143.5867  142.4529  163.5355 N.ar    1  UNL1       -0.2105
      5 N         143.4222  142.1803  162.0696 N.ar    1  UNL1       -0.1621
      6 C         142.3687  141.1246  161.9098 C.ar    1  UNL1        0.1236
      7 C         141.8820  140.7448  163.2769 C.ar    1  UNL1        0.0567
      8 C         142.6348  141.5657  164.2816 C.ar    1  UNL1        0.1666
      9 N         142.5765  141.6200  165.7795 N.ar    1  UNL1       -0.2120
     10 C         140.8277  139.7233  163.5852 C.ar    1  UNL1        0.0045
     11 C         140.4891  138.6667  162.5758 C.ar    1  UNL1        0.0001
     12 C         139.4348  137.6453  162.8841 C.ar    1  UNL1       -0.0001
     13 C         138.7190  137.6804  164.2018 C.ar    1  UNL1        0.0039
     14 C         139.0576  138.7370  165.2113 C.ar    1  UNL1        0.0714
     15 C         140.1119  139.7584  164.9029 C.ar    1  UNL1        0.0040
     16 C         138.3418  138.7722  166.5291 C.3     1  UNL1        0.4186
     17 F         137.6261  138.8073  167.8468 F       1  UNL1       -0.1659
     18 F         137.8157  137.3898  166.2801 F       1  UNL1       -0.1659
     19 F         138.8680  140.1546  166.7780 F       1  UNL1       -0.1659
     20 N         143.4118  142.6158  168.0291 N.pl3   1  UNL1       -0.3196
     21 H         144.0670  143.1552  168.5280 H       1  UNL1        0.1481
     22 O         139.1854  139.5452  170.9801 O.3     1  UNL1       -0.3845
     23 C         140.2420  140.3128  170.2423 C.3     1  UNL1        0.1106
     24 C         141.5616  139.6685  169.9371 C.3     1  UNL1        0.0309
     25 C         142.6183  140.4361  169.1993 C.3     1  UNL1        0.0220
     26 C         142.3552  141.8481  168.7668 C.3     1  UNL1        0.0705
     27 C         141.0354  142.4925  169.0721 C.3     1  UNL1        0.0220
     28 C         139.9789  141.7248  169.8098 C.3     1  UNL1        0.0309
     29 H         139.5148  138.6559  171.1839 H       1  UNL1        0.2103
@<TRIPOS>BOND
     1    23    22    1
     2    23    24    1
     3    24    25    1
     4    25    26    1
     5    26    20    1
     6    20     1    1
     7     1     2   ar
     8     2     3   ar
     9     3     4   ar
    10     4     5   ar
    11     5     6   ar
    12     6     7   ar
    13     7    10    1
    14    10    11   ar
    15    11    12   ar
    16    12    13   ar
    17    13    14   ar
    18    14    16    1
    19    16    17    1
    20    16    18    1
    21    16    19    1
    22    14    15   ar
    23     7     8   ar
    24     8     9   ar
    25    26    27    1
    26    27    28    1
    27    28    23    1
    28     9     1   ar
    29     8     4   ar
    30    15    10   ar
    31    22    29    1
    32    20    21    1
@<TRIPOS>MOLECULE
*****
 29 32 0 0 0
SMALL
GASTEIGER

@<TRIPOS>ATOM
      1 C         139.3105  139.7203  167.0411 C.ar    1  UNL1        0.1317
      2 C         138.6002  138.5085  166.5149 C.ar    1  UNL1        0.0548
      3 C         138.4770  138.2948  165.0353 C.ar    1  UNL1        0.1049
      4 N         139.0641  139.2930  164.0819 N.ar    1  UNL1       -0.2105
      5 N         139.0993  139.3493  162.5834 N.ar    1  UNL1       -0.1621
      6 C         139.8314  140.5959  162.1834 C.ar    1  UNL1        0.1236
      7 C         140.2486  141.3101  163.4348 C.ar    1  UNL1        0.0567
      8 C         139.7744  140.5049  164.6081 C.ar    1  UNL1        0.1666
      9 N         139.8976  140.7185  166.0877 N.ar    1  UNL1       -0.2120
     10 C         141.0068  142.6026  163.5012 C.ar    1  UNL1        0.0045
     11 C         140.5254  143.7951  162.7291 C.ar    1  UNL1        0.0001
     12 C         141.2837  145.0877  162.7955 C.ar    1  UNL1       -0.0001
     13 C         142.5234  145.1877  163.6340 C.ar    1  UNL1        0.0039
     14 C         143.0048  143.9952  164.4061 C.ar    1  UNL1        0.0714
     15 C         142.2466  142.7027  164.3397 C.ar    1  UNL1        0.0040
     16 C         144.2446  144.0952  165.2446 C.3     1  UNL1        0.4186
     17 F         145.4843  144.1952  166.0831 F       1  UNL1       -0.1659
     18 F         144.1718  142.6240  165.5276 F       1  UNL1       -0.1659
     19 F         144.3173  145.5665  164.9615 F       1  UNL1       -0.1659
     20 N         139.4337  139.9340  168.5207 N.pl3   1  UNL1       -0.3196
     21 H         138.7983  139.5006  169.1352 H       1  UNL1        0.1481
     22 O         143.7986  143.4304  170.6937 O.3     1  UNL1       -0.3845
     23 C         142.7074  142.5563  170.1504 C.3     1  UNL1        0.1106
     24 C         141.3256  143.1097  169.9649 C.3     1  UNL1        0.0309
     25 C         140.2343  142.2356  169.4217 C.3     1  UNL1        0.0220
     26 C         140.5249  140.8081  169.0639 C.3     1  UNL1        0.0705
     27 C         141.9068  140.2548  169.2495 C.3     1  UNL1        0.0220
     28 C         142.9980  141.1289  169.7927 C.3     1  UNL1        0.0309
     29 H         143.4452  144.3161  170.8714 H       1  UNL1        0.2103
@<TRIPOS>BOND
     1    23    22    1
     2    23    24    1
     3    24    25    1
     4    25    26    1
     5    26    20    1
     6    20     1    1
     7     1     2   ar
     8     2     3   ar
     9     3     4   ar
    10     4     5   ar
    11     5     6   ar
    12     6     7   ar
    13     7    10    1
    14    10    11   ar
    15    11    12   ar
    16    12    13   ar
    17    13    14   ar
    18    14    16    1
    19    16    17    1
    20    16    18    1
    21    16    19    1
    22    14    15   ar
    23     7     8   ar
    24     8     9   ar
    25    26    27    1
    26    27    28    1
    27    28    23    1
    28     9     1   ar
    29     8     4   ar
    30    15    10   ar
    31    22    29    1
    32    20    21    1
@<TRIPOS>MOLECULE
*****
 29 32 0 0 0
SMALL
GASTEIGER

@<TRIPOS>ATOM
      1 C         139.2665  139.8815  167.9815 C.ar    1  UNL1        0.1317
      2 C         139.0677  140.1146  169.4498 C.ar    1  UNL1        0.0548
      3 C         140.0905  140.8836  170.2324 C.ar    1  UNL1        0.1049
      4 N         141.3122  141.4194  169.5466 N.ar    1  UNL1       -0.2105
      5 N         142.4833  142.2079  170.0536 N.ar    1  UNL1       -0.1621
      6 C         143.4059  142.4621  168.8985 C.ar    1  UNL1        0.1236
      7 C         142.8050  141.8307  167.6777 C.ar    1  UNL1        0.0567
      8 C         141.5111  141.1863  168.0782 C.ar    1  UNL1        0.1666
      9 N         140.4883  140.4173  167.2957 N.ar    1  UNL1       -0.2120
     10 C         143.3946  141.8417  166.2985 C.ar    1  UNL1        0.0045
     11 C         143.9651  143.1102  165.7368 C.ar    1  UNL1        0.0001
     12 C         144.5547  143.1213  164.3576 C.ar    1  UNL1       -0.0001
     13 C         144.5738  141.8639  163.5400 C.ar    1  UNL1        0.0039
     14 C         144.0033  140.5954  164.1016 C.ar    1  UNL1        0.0714
     15 C         143.4137  140.5843  165.4808 C.ar    1  UNL1        0.0040
     16 C         144.0224  139.3379  163.2840 C.3     1  UNL1        0.4186
     17 F         144.0415  138.0805  162.4663 F       1  UNL1       -0.1659
     18 F         144.7585  140.0582  162.1935 F       1  UNL1       -0.1659
     19 F         143.2862  138.6176  164.3745 F       1  UNL1       -0.1659
     20 N         138.2436  139.1125  167.1988 N.pl3   1  UNL1       -0.3196
     21 H         137.4835  138.6919  167.6620 H       1  UNL1        0.1481
     22 O         138.7846  138.6001  161.2453 O.3     1  UNL1       -0.3845
     23 C         138.6494  138.7282  162.7337 C.3     1  UNL1        0.1106
     24 C         138.9987  137.5703  163.6209 C.3     1  UNL1        0.0309
     25 C         138.8635  137.6984  165.1093 C.3     1  UNL1        0.0220
     26 C         138.3789  138.9844  165.7105 C.3     1  UNL1        0.0705
     27 C         138.0296  140.1423  164.8232 C.3     1  UNL1        0.0220
     28 C         138.1648  140.0142  163.3348 C.3     1  UNL1        0.0309
     29 H         139.1073  137.7122  161.0252 H       1  UNL1        0.2103
@<TRIPOS>BOND
     1    23    22    1
     2    23    24    1
     3    24    25    1
     4    25    26    1
     5    26    20    1
     6    20     1    1
     7     1     2   ar
     8     2     3   ar
     9     3     4   ar
    10     4     5   ar
    11     5     6   ar
    12     6     7   ar
    13     7    10    1
    14    10    11   ar
    15    11    12   ar
    16    12    13   ar
    17    13    14   ar
    18    14    16    1
    19    16    17    1
    20    16    18    1
    21    16    19    1
    22    14    15   ar
    23     7     8   ar
    24     8     9   ar
    25    26    27    1
    26    27    28    1
    27    28    23    1
    28     9     1   ar
    29     8     4   ar
    30    15    10   ar
    31    22    29    1
    32    20    21    1
@<TRIPOS>MOLECULE
*****
 29 32 0 0 0
SMALL
GASTEIGER

@<TRIPOS>ATOM
      1 C         141.2049  140.8452  163.1756 C.ar    1  UNL1        0.1317
      2 C         142.0131  141.4003  162.0404 C.ar    1  UNL1        0.0548
      3 C         143.1927  142.2833  162.3210 C.ar    1  UNL1        0.1049
      4 N         143.5641  142.6113  163.7368 N.ar    1  UNL1       -0.2105
      5 N         144.6656  143.4478  164.3175 N.ar    1  UNL1       -0.1621
      6 C         144.5380  143.4097  165.8116 C.ar    1  UNL1        0.1236
      7 C         143.3578  142.5496  166.1543 C.ar    1  UNL1        0.0567
      8 C         142.7559  142.0562  164.8720 C.ar    1  UNL1        0.1666
      9 N         141.5763  141.1732  164.5914 N.ar    1  UNL1       -0.2120
     10 C         142.8659  142.2378  167.5366 C.ar    1  UNL1        0.0045
     11 C         143.7313  142.5341  168.7253 C.ar    1  UNL1        0.0001
     12 C         143.2394  142.2222  170.1076 C.ar    1  UNL1       -0.0001
     13 C         141.8820  141.6140  170.3012 C.ar    1  UNL1        0.0039
     14 C         141.0165  141.3177  169.1124 C.ar    1  UNL1        0.0714
     15 C         141.5085  141.6296  167.7302 C.ar    1  UNL1        0.0040
     16 C         139.6590  140.7095  169.3060 C.3     1  UNL1        0.4186
     17 F         138.3016  140.1013  169.4995 F       1  UNL1       -0.1659
     18 F         139.2730  141.8541  170.1953 F       1  UNL1       -0.1659
     19 F         140.0451  139.5649  168.4167 F       1  UNL1       -0.1659
     20 N         140.0253  139.9621  162.8950 N.pl3   1  UNL1       -0.3196
     21 H         139.7070  139.8448  161.9708 H       1  UNL1        0.1481
     22 O         137.2463  137.1453  167.4052 O.3     1  UNL1       -0.3845
     23 C         137.9410  137.8495  166.2777 C.3     1  UNL1        0.1106
     24 C         137.8255  139.3385  166.1388 C.3     1  UNL1        0.0309
     25 C         138.5202  140.0428  165.0112 C.3     1  UNL1        0.0220
     26 C         139.3305  139.2579  164.0225 C.3     1  UNL1        0.0705
     27 C         139.4461  137.7688  164.1615 C.3     1  UNL1        0.0220
     28 C         138.7513  137.0646  165.2890 C.3     1  UNL1        0.0309
     29 H         136.7706  137.7939  167.9473 H       1  UNL1        0.2103
@<TRIPOS>BOND
     1    23    22    1
     2    23    24    1
     3    24    25    1
     4    25    26    1
     5    26    20    1
     6    20     1    1
     7     1     2   ar
     8     2     3   ar
     9     3     4   ar
    10     4     5   ar
    11     5     6   ar
    12     6     7   ar
    13     7    10    1
    14    10    11   ar
    15    11    12   ar
    16    12    13   ar
    17    13    14   ar
    18    14    16    1
    19    16    17    1
    20    16    18    1
    21    16    19    1
    22    14    15   ar
    23     7     8   ar
    24     8     9   ar
    25    26    27    1
    26    27    28    1
    27    28    23    1
    28     9     1   ar
    29     8     4   ar
    30    15    10   ar
    31    22    29    1
    32    20    21    1
@<TRIPOS>MOLECULE
*****
 29 32 0 0 0
SMALL
GASTEIGER

@<TRIPOS>ATOM
      1 C         141.8269  141.5242  167.1944 C.ar    1  UNL1        0.1317
      2 C         141.1773  141.5367  168.5463 C.ar    1  UNL1        0.0548
      3 C         139.9524  140.7082  168.7975 C.ar    1  UNL1        0.1049
      4 N         139.3771  139.8672  167.6966 N.ar    1  UNL1       -0.2105
      5 N         138.1878  138.9544  167.6479 N.ar    1  UNL1       -0.1621
      6 C         138.1024  138.3777  166.2658 C.ar    1  UNL1        0.1236
      7 C         139.2390  138.9342  165.4604 C.ar    1  UNL1        0.0567
      8 C         140.0267  139.8548  166.3447 C.ar    1  UNL1        0.1666
      9 N         141.2517  140.6833  166.0936 N.ar    1  UNL1       -0.2120
     10 C         139.5357  138.6245  164.0230 C.ar    1  UNL1        0.0045
     11 C         138.4181  138.5531  163.0250 C.ar    1  UNL1        0.0001
     12 C         138.7148  138.2434  161.5877 C.ar    1  UNL1       -0.0001
     13 C         140.1291  138.0051  161.1482 C.ar    1  UNL1        0.0039
     14 C         141.2466  138.0764  162.1462 C.ar    1  UNL1        0.0714
     15 C         140.9499  138.3862  163.5836 C.ar    1  UNL1        0.0040
     16 C         142.6609  137.8381  161.7068 C.3     1  UNL1        0.4186
     17 F         144.0751  137.5998  161.2674 F       1  UNL1       -0.1659
     18 F         142.1859  137.6079  160.3028 F       1  UNL1       -0.1659
     19 F         143.1359  138.0684  163.1109 F       1  UNL1       -0.1659
     20 N         143.0519  142.3528  166.9433 N.pl3   1  UNL1       -0.3196
     21 H         143.4395  142.8914  167.6705 H       1  UNL1        0.1481
     22 O         145.5897  142.3840  161.5065 O.3     1  UNL1       -0.3845
     23 C         144.9552  142.3762  162.8657 C.3     1  UNL1        0.1106
     24 C         144.4053  143.6463  163.4439 C.3     1  UNL1        0.0309
     25 C         143.7709  143.6385  164.8032 C.3     1  UNL1        0.0220
     26 C         143.6864  142.3606  165.5841 C.3     1  UNL1        0.0705
     27 C         144.2363  141.0905  165.0057 C.3     1  UNL1        0.0220
     28 C         144.8707  141.0983  163.6466 C.3     1  UNL1        0.0309
     29 H         145.5626  143.2826  161.1422 H       1  UNL1        0.2103
@<TRIPOS>BOND
     1    23    22    1
     2    23    24    1
     3    24    25    1
     4    25    26    1
     5    26    20    1
     6    20     1    1
     7     1     2   ar
     8     2     3   ar
     9     3     4   ar
    10     4     5   ar
    11     5     6   ar
    12     6     7   ar
    13     7    10    1
    14    10    11   ar
    15    11    12   ar
    16    12    13   ar
    17    13    14   ar
    18    14    16    1
    19    16    17    1
    20    16    18    1
    21    16    19    1
    22    14    15   ar
    23     7     8   ar
    24     8     9   ar
    25    26    27    1
    26    27    28    1
    27    28    23    1
    28     9     1   ar
    29     8     4   ar
    30    15    10   ar
    31    22    29    1
    32    20    21    1
@<TRIPOS>MOLECULE
*****
 29 32 0 0 0
SMALL
GASTEIGER

@<TRIPOS>ATOM
      1 C         142.9168  139.5994  167.2262 C.ar    1  UNL1        0.1317
      2 C         143.4365  138.2972  166.6931 C.ar    1  UNL1        0.0548
      3 C         143.4782  138.0557  165.2133 C.ar    1  UNL1        0.1049
      4 N         143.0002  139.1164  164.2665 N.ar    1  UNL1       -0.2105
      5 N         142.9213  139.1638  162.7693 N.ar    1  UNL1       -0.1621
      6 C         142.3527  140.4953  162.3770 C.ar    1  UNL1        0.1236
      7 C         142.0803  141.2708  163.6318 C.ar    1  UNL1        0.0567
      8 C         142.4805  140.4186  164.7995 C.ar    1  UNL1        0.1666
      9 N         142.4388  140.6601  166.2794 N.ar    1  UNL1       -0.2120
     10 C         141.5082  142.6554  163.7058 C.ar    1  UNL1        0.0045
     11 C         142.3020  143.8230  163.1993 C.ar    1  UNL1        0.0001
     12 C         141.7299  145.2076  163.2733 C.ar    1  UNL1       -0.0001
     13 C         140.3640  145.4247  163.8539 C.ar    1  UNL1        0.0039
     14 C         139.5702  144.2571  164.3604 C.ar    1  UNL1        0.0714
     15 C         140.1423  142.8725  164.2864 C.ar    1  UNL1        0.0040
     16 C         138.2041  144.4742  164.9410 C.3     1  UNL1        0.4186
     17 F         136.8382  144.6913  165.5216 F       1  UNL1       -0.1659
     18 F         138.7760  145.4574  165.9188 F       1  UNL1       -0.1659
     19 F         137.6323  143.4909  163.9631 F       1  UNL1       -0.1659
     20 N         142.8751  139.8410  168.7060 N.pl3   1  UNL1       -0.3196
     21 H         143.4401  139.3051  169.3084 H       1  UNL1        0.1481
     22 O         139.2644  144.0727  170.9544 O.3     1  UNL1       -0.3845
     23 C         140.1671  143.0148  170.3923 C.3     1  UNL1        0.1106
     24 C         139.6372  141.6349  170.1373 C.3     1  UNL1        0.0309
     25 C         140.5399  140.5769  169.5752 C.3     1  UNL1        0.0220
     26 C         141.9724  140.8989  169.2681 C.3     1  UNL1        0.0705
     27 C         142.5022  142.2789  169.5232 C.3     1  UNL1        0.0220
     28 C         141.5996  143.3368  170.0853 C.3     1  UNL1        0.0309
     29 H         138.3791  143.7016  171.0939 H       1  UNL1        0.2103
@<TRIPOS>BOND
     1    23    22    1
     2    23    24    1
     3    24    25    1
     4    25    26    1
     5    26    20    1
     6    20     1    1
     7     1     2   ar
     8     2     3   ar
     9     3     4   ar
    10     4     5   ar
    11     5     6   ar
    12     6     7   ar
    13     7    10    1
    14    10    11   ar
    15    11    12   ar
    16    12    13   ar
    17    13    14   ar
    18    14    16    1
    19    16    17    1
    20    16    18    1
    21    16    19    1
    22    14    15   ar
    23     7     8   ar
    24     8     9   ar
    25    26    27    1
    26    27    28    1
    27    28    23    1
    28     9     1   ar
    29     8     4   ar
    30    15    10   ar
    31    22    29    1
    32    20    21    1
@<TRIPOS>MOLECULE
*****
 29 32 0 0 0
SMALL
GASTEIGER

@<TRIPOS>ATOM
      1 C         138.8709  140.4037  161.3601 C.ar    1  UNL1        0.1317
      2 C         138.5835  139.0638  160.7504 C.ar    1  UNL1        0.0548
      3 C         139.2420  137.8331  161.2996 C.ar    1  UNL1        0.1049
      4 N         140.1880  137.9424  162.4586 N.ar    1  UNL1       -0.2105
      5 N         140.9801  136.9125  163.2082 N.ar    1  UNL1       -0.1621
      6 C         141.7571  137.6160  164.2812 C.ar    1  UNL1        0.1236
      7 C         141.4452  139.0807  164.1947 C.ar    1  UNL1        0.0567
      8 C         140.4754  139.2824  163.0683 C.ar    1  UNL1        0.1666
      9 N         139.8169  140.5131  162.5190 N.ar    1  UNL1       -0.2120
     10 C         142.0048  140.1551  165.0793 C.ar    1  UNL1        0.0045
     11 C         142.0454  139.9572  166.5657 C.ar    1  UNL1        0.0001
     12 C         142.6050  141.0316  167.4503 C.ar    1  UNL1       -0.0001
     13 C         143.1240  142.3038  166.8487 C.ar    1  UNL1        0.0039
     14 C         143.0834  142.5017  165.3623 C.ar    1  UNL1        0.0714
     15 C         142.5238  141.4273  164.4777 C.ar    1  UNL1        0.0040
     16 C         143.6024  143.7740  164.7606 C.3     1  UNL1        0.4186
     17 F         144.1213  145.0462  164.1588 F       1  UNL1       -0.1659
     18 F         142.2752  144.0030  164.1002 F       1  UNL1       -0.1659
     19 F         144.9296  143.5449  165.4210 F       1  UNL1       -0.1659
     20 N         138.2124  141.6345  160.8108 N.pl3   1  UNL1       -0.3196
     21 H         137.4463  141.5511  160.1981 H       1  UNL1        0.1481
     22 O         140.2475  147.0656  162.3474 O.3     1  UNL1       -0.3845
     23 C         139.7387  145.7078  161.9632 C.3     1  UNL1        0.1106
     24 C         138.7138  145.0219  162.8169 C.3     1  UNL1        0.0309
     25 C         138.2050  143.6640  162.4328 C.3     1  UNL1        0.0220
     26 C         138.7211  142.9923  161.1949 C.3     1  UNL1        0.0705
     27 C         139.7462  143.6783  160.3412 C.3     1  UNL1        0.0220
     28 C         140.2549  145.0361  160.7254 C.3     1  UNL1        0.0309
     29 H         139.8147  147.3532  163.1664 H       1  UNL1        0.2103
@<TRIPOS>BOND
     1    23    22    1
     2    23    24    1
     3    24    25    1
     4    25    26    1
     5    26    20    1
     6    20     1    1
     7     1     2   ar
     8     2     3   ar
     9     3     4   ar
    10     4     5   ar
    11     5     6   ar
    12     6     7   ar
    13     7    10    1
    14    10    11   ar
    15    11    12   ar
    16    12    13   ar
    17    13    14   ar
    18    14    16    1
    19    16    17    1
    20    16    18    1
    21    16    19    1
    22    14    15   ar
    23     7     8   ar
    24     8     9   ar
    25    26    27    1
    26    27    28    1
    27    28    23    1
    28     9     1   ar
    29     8     4   ar
    30    15    10   ar
    31    22    29    1
    32    20    21    1
@<TRIPOS>MOLECULE
*****
 29 32 0 0 0
SMALL
GASTEIGER

@<TRIPOS>ATOM
      1 C         142.0797  142.5094  160.1032 C.ar    1  UNL1        0.1317
      2 C         141.3603  143.0676  158.9112 C.ar    1  UNL1        0.0548
      3 C         140.0050  142.5431  158.5398 C.ar    1  UNL1        0.1049
      4 N         139.3691  141.4603  159.3604 N.ar    1  UNL1       -0.2105
      5 N         138.0534  140.7503  159.2386 N.ar    1  UNL1       -0.1621
      6 C         137.9597  139.7532  160.3553 C.ar    1  UNL1        0.1236
      7 C         139.2175  139.8470  161.1672 C.ar    1  UNL1        0.0567
      8 C         140.0885  140.9021  160.5523 C.ar    1  UNL1        0.1666
      9 N         141.4438  141.4266  160.9237 N.ar    1  UNL1       -0.2120
     10 C         139.5465  139.0293  162.3809 C.ar    1  UNL1        0.0045
     11 C         140.7231  138.0991  162.3622 C.ar    1  UNL1        0.0001
     12 C         141.0521  137.2814  163.5759 C.ar    1  UNL1       -0.0001
     13 C         140.2046  137.3939  164.8084 C.ar    1  UNL1        0.0039
     14 C         139.0280  138.3241  164.8271 C.ar    1  UNL1        0.0714
     15 C         138.6990  139.1417  163.6133 C.ar    1  UNL1        0.0040
     16 C         138.1803  138.4365  166.0596 C.3     1  UNL1        0.4186
     17 F         137.3327  138.5489  167.2920 F       1  UNL1       -0.1659
     18 F         138.1296  136.9409  166.1611 F       1  UNL1       -0.1659
     19 F         138.2311  139.9322  165.9580 F       1  UNL1       -0.1659
     20 N         143.4351  143.0339  160.4746 N.pl3   1  UNL1       -0.3196
     21 H         144.0898  143.2481  159.7712 H       1  UNL1        0.1481
     22 O         144.8665  143.8267  166.2471 O.3     1  UNL1       -0.3845
     23 C         144.5087  143.6285  164.8040 C.3     1  UNL1        0.1106
     24 C         143.6564  144.6402  164.0969 C.3     1  UNL1        0.0309
     25 C         143.2986  144.4420  162.6537 C.3     1  UNL1        0.0220
     26 C         143.7929  143.2321  161.9177 C.3     1  UNL1        0.0705
     27 C         144.6452  142.2204  162.6249 C.3     1  UNL1        0.0220
     28 C         145.0030  142.4186  164.0681 C.3     1  UNL1        0.0309
     29 H         144.4696  144.6515  166.5683 H       1  UNL1        0.2103
@<TRIPOS>BOND
     1    23    22    1
     2    23    24    1
     3    24    25    1
     4    25    26    1
     5    26    20    1
     6    20     1    1
     7     1     2   ar
     8     2     3   ar
     9     3     4   ar
    10     4     5   ar
    11     5     6   ar
    12     6     7   ar
    13     7    10    1
    14    10    11   ar
    15    11    12   ar
    16    12    13   ar
    17    13    14   ar
    18    14    16    1
    19    16    17    1
    20    16    18    1
    21    16    19    1
    22    14    15   ar
    23     7     8   ar
    24     8     9   ar
    25    26    27    1
    26    27    28    1
    27    28    23    1
    28     9     1   ar
    29     8     4   ar
    30    15    10   ar
    31    22    29    1
    32    20    21    1
