@<TRIPOS>MOLECULE
*****
 33 37 0 0 0
SMALL
GASTEIGER

@<TRIPOS>ATOM
      1 N         142.9462  144.1345  162.6583 N.3     1  UNL1       -0.2723
      2 C         142.2299  144.6651  163.8646 C.3     1  UNL1        0.0735
      3 C         140.7759  145.0227  163.7765 C.3     1  UNL1        0.0331
      4 C         140.0381  144.8496  162.4819 C.3     1  UNL1        0.0570
      5 C         140.7544  144.3190  161.2756 C.3     1  UNL1        0.0331
      6 C         142.2085  143.9614  161.3638 C.3     1  UNL1        0.0735
      7 N         138.5840  145.2072  162.3938 N.3     1  UNL1       -0.2934
      8 H         138.3473  145.2354  161.4021 H       1  UNL1        0.1236
      9 C         137.5568  144.3404  163.0597 C.3     1  UNL1        0.1152
     10 C         137.7691  142.8581  163.1471 C.ar    1  UNL1        0.0782
     11 C         138.0976  142.2240  164.4662 C.ar    1  UNL1        0.0562
     12 C         138.3100  140.7416  164.5536 C.ar    1  UNL1        0.1752
     13 C         138.1938  139.8934  163.3219 C.ar    1  UNL1        0.1914
     14 C         137.8653  140.5275  162.0028 C.ar    1  UNL1        0.1384
     15 N         137.6530  142.0098  161.9154 N.ar    1  UNL1       -0.2434
     16 O         138.4062  138.4111  163.4093 O.3     1  UNL1       -0.4668
     17 C         138.7347  137.7770  164.7284 C.3     1  UNL1        0.2527
     18 C         138.8508  138.6252  165.9601 C.3     1  UNL1        0.2526
     19 O         138.6384  140.1075  165.8727 O.3     1  UNL1       -0.4683
     20 C         144.4003  143.7769  162.7464 C.3     1  UNL1        0.0768
     21 C         144.8950  142.9201  163.8739 C.3     1  UNL1        0.0438
     22 C         142.5899  141.7020  167.5417 C.ar    1  UNL1        0.1388
     23 C         142.0975  140.2924  167.6843 C.ar    1  UNL1        0.0384
     24 C         142.3735  139.2887  166.6042 C.ar    1  UNL1        0.0222
     25 C         143.1419  139.6947  165.3817 C.ar    1  UNL1        0.0812
     26 N         143.4179  138.6910  164.3016 N.ar    1  UNL1       -0.2439
     27 C         144.1863  139.0970  163.0791 C.ar    1  UNL1        0.0985
     28 C         144.6786  140.5067  162.9364 C.ar    1  UNL1        0.0165
     29 C         144.4026  141.5104  164.0165 C.ar    1  UNL1       -0.0177
     30 C         143.6342  141.1043  165.2391 C.ar    1  UNL1        0.0168
     31 C         143.3582  142.1080  166.3191 C.ar    1  UNL1        0.0381
     32 C         140.9429  142.8030  169.2226 C.3     1  UNL1        0.2525
     33 O         142.3139  142.7057  168.6217 O.3     1  UNL1       -0.4714
@<TRIPOS>BOND
     1    32    33    1
     2    33    22    1
     3    22    23   ar
     4    23    24   ar
     5    24    25   ar
     6    25    26   ar
     7    26    27   ar
     8    27    28   ar
     9    28    29   ar
    10    29    21    1
    11    21    20    1
    12    20     1    1
    13     1     2    1
    14     2     3    1
    15     3     4    1
    16     4     7    1
    17     7     9    1
    18     9    10    1
    19    10    11   ar
    20    11    12   ar
    21    12    13   ar
    22    13    14   ar
    23    14    15   ar
    24    13    16    1
    25    16    17    1
    26    17    18    1
    27    18    19    1
    28     4     5    1
    29     5     6    1
    30    29    30   ar
    31    30    31   ar
    32    31    22   ar
    33    30    25   ar
    34     6     1    1
    35    15    10   ar
    36    19    12    1
    37     7     8    1
@<TRIPOS>MOLECULE
*****
 33 37 0 0 0
SMALL
GASTEIGER

@<TRIPOS>ATOM
      1 N         142.1645  137.9562  164.0984 N.3     1  UNL1       -0.2723
      2 C         142.9258  138.6439  165.1928 C.3     1  UNL1        0.0735
      3 C         144.0716  139.5506  164.8540 C.3     1  UNL1        0.0331
      4 C         144.4563  139.7697  163.4207 C.3     1  UNL1        0.0570
      5 C         143.6951  139.0820  162.3264 C.3     1  UNL1        0.0331
      6 C         142.5491  138.1753  162.6652 C.3     1  UNL1        0.0735
      7 N         145.6022  140.6764  163.0819 N.3     1  UNL1       -0.2934
      8 H         145.6959  140.6655  162.0663 H       1  UNL1        0.1236
      9 C         145.5671  142.1170  163.4982 C.3     1  UNL1        0.1152
     10 C         144.3239  142.9289  163.2860 C.ar    1  UNL1        0.0782
     11 C         143.8954  143.2952  161.8959 C.ar    1  UNL1        0.0562
     12 C         142.6521  144.1072  161.6838 C.ar    1  UNL1        0.1752
     13 C         141.8373  144.5528  162.8617 C.ar    1  UNL1        0.1914
     14 C         142.2657  144.1866  164.2517 C.ar    1  UNL1        0.1384
     15 N         143.5090  143.3746  164.4639 N.ar    1  UNL1       -0.2434
     16 O         140.5940  145.3648  162.6495 O.3     1  UNL1       -0.4668
     17 C         140.1655  145.7311  161.2594 C.3     1  UNL1        0.2527
     18 C         140.9804  145.2854  160.0815 C.3     1  UNL1        0.2526
     19 O         142.2237  144.4735  160.2937 O.3     1  UNL1       -0.4683
     20 C         141.0186  137.0495  164.4372 C.3     1  UNL1        0.0768
     21 C         139.6741  137.6296  164.7626 C.3     1  UNL1        0.0438
     22 C         139.4596  142.0561  165.5433 C.ar    1  UNL1        0.1388
     23 C         138.7743  142.9586  164.5606 C.ar    1  UNL1        0.0384
     24 C         138.1606  142.3857  163.3176 C.ar    1  UNL1        0.0222
     25 C         138.2321  140.9102  163.0573 C.ar    1  UNL1        0.0812
     26 N         137.6184  140.3372  161.8143 N.ar    1  UNL1       -0.2439
     27 C         137.6899  138.8618  161.5541 C.ar    1  UNL1        0.0985
     28 C         138.3751  137.9591  162.5369 C.ar    1  UNL1        0.0165
     29 C         138.9889  138.5321  163.7799 C.ar    1  UNL1       -0.0177
     30 C         138.9173  140.0077  164.0401 C.ar    1  UNL1        0.0168
     31 C         139.5311  140.5806  165.2831 C.ar    1  UNL1        0.0381
     32 C         141.3779  142.0914  167.2951 C.3     1  UNL1        0.2525
     33 O         140.0733  142.6291  166.7863 O.3     1  UNL1       -0.4714
@<TRIPOS>BOND
     1    32    33    1
     2    33    22    1
     3    22    23   ar
     4    23    24   ar
     5    24    25   ar
     6    25    26   ar
     7    26    27   ar
     8    27    28   ar
     9    28    29   ar
    10    29    21    1
    11    21    20    1
    12    20     1    1
    13     1     2    1
    14     2     3    1
    15     3     4    1
    16     4     7    1
    17     7     9    1
    18     9    10    1
    19    10    11   ar
    20    11    12   ar
    21    12    13   ar
    22    13    14   ar
    23    14    15   ar
    24    13    16    1
    25    16    17    1
    26    17    18    1
    27    18    19    1
    28     4     5    1
    29     5     6    1
    30    29    30   ar
    31    30    31   ar
    32    31    22   ar
    33    30    25   ar
    34     6     1    1
    35    15    10   ar
    36    19    12    1
    37     7     8    1
@<TRIPOS>MOLECULE
*****
 33 37 0 0 0
SMALL
GASTEIGER

@<TRIPOS>ATOM
      1 N         139.1956  144.1183  162.8260 N.3     1  UNL1       -0.2723
      2 C         139.9457  144.6097  164.0285 C.3     1  UNL1        0.0735
      3 C         141.4009  144.9554  163.9151 C.3     1  UNL1        0.0331
      4 C         142.1060  144.8098  162.5991 C.3     1  UNL1        0.0570
      5 C         141.3560  144.3184  161.3967 C.3     1  UNL1        0.0331
      6 C         139.9007  143.9726  161.5102 C.3     1  UNL1        0.0735
      7 N         143.5612  145.1555  162.4857 N.3     1  UNL1       -0.2934
      8 H         143.7501  145.8688  163.1899 H       1  UNL1        0.1236
      9 C         144.6013  144.0889  162.6599 C.3     1  UNL1        0.1152
     10 C         144.1899  142.6913  163.0168 C.ar    1  UNL1        0.0782
     11 C         143.8935  142.3380  164.4441 C.ar    1  UNL1        0.0562
     12 C         143.4820  140.9403  164.8009 C.ar    1  UNL1        0.1752
     13 C         143.3670  139.8960  163.7304 C.ar    1  UNL1        0.1914
     14 C         143.6634  140.2492  162.3030 C.ar    1  UNL1        0.1384
     15 N         144.0748  141.6468  161.9462 N.ar    1  UNL1       -0.2434
     16 O         142.9555  138.4983  164.0872 O.3     1  UNL1       -0.4668
     17 C         142.6591  138.1450  165.5145 C.3     1  UNL1        0.2527
     18 C         142.7742  139.1894  166.5851 C.3     1  UNL1        0.2526
     19 O         143.1856  140.5870  166.2283 O.3     1  UNL1       -0.4683
     20 C         137.7405  143.7725  162.9395 C.3     1  UNL1        0.0768
     21 C         137.3257  142.4597  163.5349 C.3     1  UNL1        0.0438
     22 C         138.5474  138.9325  166.0481 C.ar    1  UNL1        0.1388
     23 C         138.9555  137.6480  165.3898 C.ar    1  UNL1        0.0384
     24 C         138.9564  137.5392  163.8938 C.ar    1  UNL1        0.0222
     25 C         138.5492  138.7149  163.0560 C.ar    1  UNL1        0.0812
     26 N         138.5501  138.6061  161.5600 N.ar    1  UNL1       -0.2439
     27 C         138.1428  139.7818  160.7223 C.ar    1  UNL1        0.0985
     28 C         137.7347  141.0664  161.3806 C.ar    1  UNL1        0.0165
     29 C         137.7338  141.1752  162.8766 C.ar    1  UNL1       -0.0177
     30 C         138.1410  139.9994  163.7144 C.ar    1  UNL1        0.0168
     31 C         138.1402  140.1082  165.2104 C.ar    1  UNL1        0.0381
     32 C         139.4525  140.0237  168.2253 C.3     1  UNL1        0.2525
     33 O         138.5465  139.0413  167.5442 O.3     1  UNL1       -0.4714
@<TRIPOS>BOND
     1    32    33    1
     2    33    22    1
     3    22    23   ar
     4    23    24   ar
     5    24    25   ar
     6    25    26   ar
     7    26    27   ar
     8    27    28   ar
     9    28    29   ar
    10    29    21    1
    11    21    20    1
    12    20     1    1
    13     1     2    1
    14     2     3    1
    15     3     4    1
    16     4     7    1
    17     7     9    1
    18     9    10    1
    19    10    11   ar
    20    11    12   ar
    21    12    13   ar
    22    13    14   ar
    23    14    15   ar
    24    13    16    1
    25    16    17    1
    26    17    18    1
    27    18    19    1
    28     4     5    1
    29     5     6    1
    30    29    30   ar
    31    30    31   ar
    32    31    22   ar
    33    30    25   ar
    34     6     1    1
    35    15    10   ar
    36    19    12    1
    37     7     8    1
@<TRIPOS>MOLECULE
*****
 33 37 0 0 0
SMALL
GASTEIGER

@<TRIPOS>ATOM
      1 N         137.9416  143.0143  162.8603 N.3     1  UNL1       -0.2723
      2 C         137.6925  141.9013  163.8346 C.3     1  UNL1        0.0735
      3 C         137.6549  140.4802  163.3561 C.3     1  UNL1        0.0331
      4 C         137.8665  140.1720  161.9034 C.3     1  UNL1        0.0570
      5 C         138.1156  141.2850  160.9292 C.3     1  UNL1        0.0331
      6 C         138.1532  142.7062  161.4077 C.3     1  UNL1        0.0735
      7 N         137.8289  138.7508  161.4250 N.3     1  UNL1       -0.2934
      8 H         137.2673  138.7415  160.5736 H       1  UNL1        0.1236
      9 C         139.1068  138.0319  161.1087 C.3     1  UNL1        0.1152
     10 C         140.3064  138.2110  161.9912 C.ar    1  UNL1        0.0782
     11 C         141.3780  139.1892  161.6108 C.ar    1  UNL1        0.0562
     12 C         142.5777  139.3683  162.4934 C.ar    1  UNL1        0.1752
     13 C         142.7056  138.5693  163.7564 C.ar    1  UNL1        0.1914
     14 C         141.6339  137.5911  164.1368 C.ar    1  UNL1        0.1384
     15 N         140.4343  137.4120  163.2543 N.ar    1  UNL1       -0.2434
     16 O         143.9052  138.7483  164.6390 O.3     1  UNL1       -0.4668
     17 C         144.9768  139.7265  164.2586 C.3     1  UNL1        0.2527
     18 C         144.8489  140.5256  162.9955 C.3     1  UNL1        0.2526
     19 O         143.6493  140.3465  162.1130 O.3     1  UNL1       -0.4683
     20 C         137.9792  144.4354  163.3387 C.3     1  UNL1        0.0768
     21 C         138.9758  144.8501  164.3804 C.3     1  UNL1        0.0438
     22 C         140.8891  141.9859  167.2761 C.ar    1  UNL1        0.1388
     23 C         142.3344  141.6159  167.1207 C.ar    1  UNL1        0.0384
     24 C         143.1420  142.2007  166.0000 C.ar    1  UNL1        0.0222
     25 C         142.5042  143.1554  165.0347 C.ar    1  UNL1        0.0812
     26 N         143.3117  143.7401  163.9140 N.ar    1  UNL1       -0.2439
     27 C         142.6740  144.6948  162.9488 C.ar    1  UNL1        0.0985
     28 C         141.2286  145.0649  163.1042 C.ar    1  UNL1        0.0165
     29 C         140.4211  144.4801  164.2249 C.ar    1  UNL1       -0.0177
     30 C         141.0589  143.5254  165.1902 C.ar    1  UNL1        0.0168
     31 C         140.2514  142.9406  166.3109 C.ar    1  UNL1        0.0381
     32 C         139.5028  140.0237  168.2649 C.3     1  UNL1        0.2525
     33 O         140.0816  141.4011  168.3968 O.3     1  UNL1       -0.4714
@<TRIPOS>BOND
     1    32    33    1
     2    33    22    1
     3    22    23   ar
     4    23    24   ar
     5    24    25   ar
     6    25    26   ar
     7    26    27   ar
     8    27    28   ar
     9    28    29   ar
    10    29    21    1
    11    21    20    1
    12    20     1    1
    13     1     2    1
    14     2     3    1
    15     3     4    1
    16     4     7    1
    17     7     9    1
    18     9    10    1
    19    10    11   ar
    20    11    12   ar
    21    12    13   ar
    22    13    14   ar
    23    14    15   ar
    24    13    16    1
    25    16    17    1
    26    17    18    1
    27    18    19    1
    28     4     5    1
    29     5     6    1
    30    29    30   ar
    31    30    31   ar
    32    31    22   ar
    33    30    25   ar
    34     6     1    1
    35    15    10   ar
    36    19    12    1
    37     7     8    1
@<TRIPOS>MOLECULE
*****
 33 37 0 0 0
SMALL
GASTEIGER

@<TRIPOS>ATOM
      1 N         140.5586  144.8083  162.9062 N.3     1  UNL1       -0.2723
      2 C         141.6343  144.9197  163.9457 C.3     1  UNL1        0.0735
      3 C         143.0404  144.5143  163.6163 C.3     1  UNL1        0.0331
      4 C         143.3709  143.9975  162.2474 C.3     1  UNL1        0.0570
      5 C         142.2952  143.8861  161.2080 C.3     1  UNL1        0.0331
      6 C         140.8890  144.2915  161.5374 C.3     1  UNL1        0.0735
      7 N         144.7770  143.5921  161.9181 N.3     1  UNL1       -0.2934
      8 H         145.3648  143.9186  162.6850 H       1  UNL1        0.1236
      9 C         145.1096  142.1453  161.7031 C.3     1  UNL1        0.1152
     10 C         144.4287  141.0895  162.5226 C.ar    1  UNL1        0.0782
     11 C         143.2602  140.3383  161.9566 C.ar    1  UNL1        0.0562
     12 C         142.5793  139.2824  162.7762 C.ar    1  UNL1        0.1752
     13 C         143.0670  138.9777  164.1615 C.ar    1  UNL1        0.1914
     14 C         144.2356  139.7288  164.7274 C.ar    1  UNL1        0.1384
     15 N         144.9164  140.7847  163.9080 N.ar    1  UNL1       -0.2434
     16 O         142.3861  137.9217  164.9810 O.3     1  UNL1       -0.4668
     17 C         141.2176  137.1706  164.4151 C.3     1  UNL1        0.2527
     18 C         140.7299  137.4754  163.0297 C.3     1  UNL1        0.2526
     19 O         141.4107  138.5313  162.2102 O.3     1  UNL1       -0.4683
     20 C         139.1525  145.2137  163.2356 C.3     1  UNL1        0.0768
     21 C         138.3800  144.4619  164.2788 C.3     1  UNL1        0.0438
     22 C         140.5234  142.1079  167.4591 C.ar    1  UNL1        0.1388
     23 C         140.4904  140.6085  167.4327 C.ar    1  UNL1        0.0384
     24 C         139.7430  139.8938  166.3461 C.ar    1  UNL1        0.0222
     25 C         139.0286  140.6785  165.2860 C.ar    1  UNL1        0.0812
     26 N         138.2812  139.9637  164.1995 N.ar    1  UNL1       -0.2439
     27 C         137.5668  140.7484  163.1394 C.ar    1  UNL1        0.0985
     28 C         137.5997  142.2478  163.1658 C.ar    1  UNL1        0.0165
     29 C         138.3471  142.9626  164.2523 C.ar    1  UNL1       -0.0177
     30 C         139.0616  142.1778  165.3125 C.ar    1  UNL1        0.0168
     31 C         139.8089  142.8926  166.3990 C.ar    1  UNL1        0.0381
     32 C         140.5193  143.5834  169.5975 C.3     1  UNL1        0.2525
     33 O         141.2707  142.8226  168.5457 O.3     1  UNL1       -0.4714
@<TRIPOS>BOND
     1    32    33    1
     2    33    22    1
     3    22    23   ar
     4    23    24   ar
     5    24    25   ar
     6    25    26   ar
     7    26    27   ar
     8    27    28   ar
     9    28    29   ar
    10    29    21    1
    11    21    20    1
    12    20     1    1
    13     1     2    1
    14     2     3    1
    15     3     4    1
    16     4     7    1
    17     7     9    1
    18     9    10    1
    19    10    11   ar
    20    11    12   ar
    21    12    13   ar
    22    13    14   ar
    23    14    15   ar
    24    13    16    1
    25    16    17    1
    26    17    18    1
    27    18    19    1
    28     4     5    1
    29     5     6    1
    30    29    30   ar
    31    30    31   ar
    32    31    22   ar
    33    30    25   ar
    34     6     1    1
    35    15    10   ar
    36    19    12    1
    37     7     8    1
@<TRIPOS>MOLECULE
*****
 33 37 0 0 0
SMALL
GASTEIGER

@<TRIPOS>ATOM
      1 N         138.0602  141.1527  163.7006 N.3     1  UNL1       -0.2723
      2 C         138.2270  142.2875  164.6673 C.3     1  UNL1        0.0735
      3 C         138.4136  143.6858  164.1574 C.3     1  UNL1        0.0331
      4 C         138.4332  143.9494  162.6809 C.3     1  UNL1        0.0570
      5 C         138.2663  142.8146  161.7142 C.3     1  UNL1        0.0331
      6 C         138.0798  141.4162  162.2241 C.3     1  UNL1        0.0735
      7 N         138.6197  145.3476  162.1710 N.3     1  UNL1       -0.2934
      8 H         138.1126  145.9630  162.8071 H       1  UNL1        0.1236
      9 C         140.0005  145.9158  162.0278 C.3     1  UNL1        0.1152
     10 C         141.1854  144.9986  161.9579 C.ar    1  UNL1        0.0782
     11 C         141.9689  144.6896  163.1990 C.ar    1  UNL1        0.0562
     12 C         143.1538  143.7724  163.1291 C.ar    1  UNL1        0.1752
     13 C         143.5551  143.1643  161.8179 C.ar    1  UNL1        0.1914
     14 C         142.7716  143.4733  160.5768 C.ar    1  UNL1        0.1384
     15 N         141.5867  144.3904  160.6467 N.ar    1  UNL1       -0.2434
     16 O         144.7400  142.2470  161.7480 O.3     1  UNL1       -0.4668
     17 C         145.5236  141.9380  162.9891 C.3     1  UNL1        0.2527
     18 C         145.1222  142.5462  164.3003 C.3     1  UNL1        0.2526
     19 O         143.9374  143.4634  164.3703 O.3     1  UNL1       -0.4683
     20 C         137.8737  139.7544  164.2104 C.3     1  UNL1        0.0768
     21 C         138.3766  139.3796  165.5730 C.3     1  UNL1        0.0438
     22 C         140.2900  140.9029  169.3504 C.ar    1  UNL1        0.1388
     23 C         141.7592  140.7051  169.5794 C.ar    1  UNL1        0.0384
     24 C         142.5905  139.9996  168.5493 C.ar    1  UNL1        0.0222
     25 C         141.9527  139.4918  167.2902 C.ar    1  UNL1        0.0812
     26 N         142.7841  138.7863  166.2601 N.ar    1  UNL1       -0.2439
     27 C         142.1463  138.2785  165.0010 C.ar    1  UNL1        0.0985
     28 C         140.6771  138.4763  164.7719 C.ar    1  UNL1        0.0165
     29 C         139.8457  139.1818  165.8020 C.ar    1  UNL1       -0.0177
     30 C         140.4836  139.6896  167.0612 C.ar    1  UNL1        0.0168
     31 C         139.6522  140.3951  168.0913 C.ar    1  UNL1        0.0381
     32 C         139.7512  143.0375  170.7299 C.3     1  UNL1        0.2525
     33 O         139.4587  141.6084  170.3805 O.3     1  UNL1       -0.4714
@<TRIPOS>BOND
     1    32    33    1
     2    33    22    1
     3    22    23   ar
     4    23    24   ar
     5    24    25   ar
     6    25    26   ar
     7    26    27   ar
     8    27    28   ar
     9    28    29   ar
    10    29    21    1
    11    21    20    1
    12    20     1    1
    13     1     2    1
    14     2     3    1
    15     3     4    1
    16     4     7    1
    17     7     9    1
    18     9    10    1
    19    10    11   ar
    20    11    12   ar
    21    12    13   ar
    22    13    14   ar
    23    14    15   ar
    24    13    16    1
    25    16    17    1
    26    17    18    1
    27    18    19    1
    28     4     5    1
    29     5     6    1
    30    29    30   ar
    31    30    31   ar
    32    31    22   ar
    33    30    25   ar
    34     6     1    1
    35    15    10   ar
    36    19    12    1
    37     7     8    1
@<TRIPOS>MOLECULE
*****
 33 37 0 0 0
SMALL
GASTEIGER

@<TRIPOS>ATOM
      1 N         141.7134  138.1720  164.2280 N.3     1  UNL1       -0.2723
      2 C         141.7612  138.6657  162.8124 C.3     1  UNL1        0.0735
      3 C         142.9502  139.4418  162.3286 C.3     1  UNL1        0.0331
      4 C         144.0913  139.7243  163.2604 C.3     1  UNL1        0.0570
      5 C         144.0434  139.2305  164.6760 C.3     1  UNL1        0.0331
      6 C         142.8544  138.4544  165.1598 C.3     1  UNL1        0.0735
      7 N         145.2802  140.5004  162.7766 N.3     1  UNL1       -0.2934
      8 H         145.2914  140.4184  161.7600 H       1  UNL1        0.1236
      9 C         145.4022  141.9612  163.0947 C.3     1  UNL1        0.1152
     10 C         144.1960  142.8493  163.0158 C.ar    1  UNL1        0.0782
     11 C         143.6672  143.2790  161.6795 C.ar    1  UNL1        0.0562
     12 C         142.4609  144.1672  161.6007 C.ar    1  UNL1        0.1752
     13 C         141.7836  144.6256  162.8580 C.ar    1  UNL1        0.1914
     14 C         142.3124  144.1958  164.1943 C.ar    1  UNL1        0.1384
     15 N         143.5186  143.3077  164.2732 N.ar    1  UNL1       -0.2434
     16 O         140.5773  145.5137  162.7792 O.3     1  UNL1       -0.4668
     17 C         140.0484  145.9435  161.4429 C.3     1  UNL1        0.2527
     18 C         140.7258  145.4850  160.1855 C.3     1  UNL1        0.2526
     19 O         141.9320  144.5969  160.2644 O.3     1  UNL1       -0.4683
     20 C         140.5245  137.3959  164.7118 C.3     1  UNL1        0.0768
     21 C         139.3951  138.1047  165.3990 C.3     1  UNL1        0.0438
     22 C         137.8857  141.3724  162.6983 C.ar    1  UNL1        0.1388
     23 C         138.0371  142.8090  163.1023 C.ar    1  UNL1        0.0384
     24 C         138.6915  143.1564  164.4065 C.ar    1  UNL1        0.0222
     25 C         139.1946  142.0672  165.3068 C.ar    1  UNL1        0.0812
     26 N         139.8491  142.4146  166.6110 N.ar    1  UNL1       -0.2439
     27 C         140.3522  141.3254  167.5112 C.ar    1  UNL1        0.0985
     28 C         140.2009  139.8887  167.1072 C.ar    1  UNL1        0.0165
     29 C         139.5464  139.5413  165.8030 C.ar    1  UNL1       -0.0177
     30 C         139.0433  140.6306  164.9028 C.ar    1  UNL1        0.0168
     31 C         138.3888  140.2832  163.5985 C.ar    1  UNL1        0.0381
     32 C         137.5398  139.7187  160.7246 C.3     1  UNL1        0.2525
     33 O         137.2313  141.0251  161.3941 O.3     1  UNL1       -0.4714
@<TRIPOS>BOND
     1    32    33    1
     2    33    22    1
     3    22    23   ar
     4    23    24   ar
     5    24    25   ar
     6    25    26   ar
     7    26    27   ar
     8    27    28   ar
     9    28    29   ar
    10    29    21    1
    11    21    20    1
    12    20     1    1
    13     1     2    1
    14     2     3    1
    15     3     4    1
    16     4     7    1
    17     7     9    1
    18     9    10    1
    19    10    11   ar
    20    11    12   ar
    21    12    13   ar
    22    13    14   ar
    23    14    15   ar
    24    13    16    1
    25    16    17    1
    26    17    18    1
    27    18    19    1
    28     4     5    1
    29     5     6    1
    30    29    30   ar
    31    30    31   ar
    32    31    22   ar
    33    30    25   ar
    34     6     1    1
    35    15    10   ar
    36    19    12    1
    37     7     8    1
@<TRIPOS>MOLECULE
*****
 33 37 0 0 0
SMALL
GASTEIGER

@<TRIPOS>ATOM
      1 N         144.4657  140.0455  163.5507 N.3     1  UNL1       -0.2723
      2 C         143.7275  139.2994  164.6224 C.3     1  UNL1        0.0735
      3 C         142.6398  138.3355  164.2518 C.3     1  UNL1        0.0331
      4 C         142.2901  138.1175  162.8095 C.3     1  UNL1        0.0570
      5 C         143.0282  138.8635  161.7378 C.3     1  UNL1        0.0331
      6 C         144.1161  139.8276  162.1084 C.3     1  UNL1        0.0735
      7 N         141.2023  137.1535  162.4389 N.3     1  UNL1       -0.2934
      8 H         141.3318  136.3256  163.0204 H       1  UNL1        0.1236
      9 C         139.7640  137.5573  162.5745 C.3     1  UNL1        0.1152
     10 C         139.3652  138.9895  162.3757 C.ar    1  UNL1        0.0782
     11 C         138.8262  139.7848  163.5277 C.ar    1  UNL1        0.0562
     12 C         138.4273  141.2171  163.3288 C.ar    1  UNL1        0.1752
     13 C         138.5674  141.8540  161.9781 C.ar    1  UNL1        0.1914
     14 C         139.1064  141.0588  160.8261 C.ar    1  UNL1        0.1384
     15 N         139.5053  139.6265  161.0249 N.ar    1  UNL1       -0.2434
     16 O         138.1686  143.2863  161.7792 O.3     1  UNL1       -0.4668
     17 C         137.6295  144.0816  162.9312 C.3     1  UNL1        0.2527
     18 C         137.4894  143.4446  164.2820 C.3     1  UNL1        0.2526
     19 O         137.8883  142.0123  164.4808 O.3     1  UNL1       -0.4683
     20 C         145.5535  141.0095  163.9213 C.3     1  UNL1        0.0768
     21 C         145.2067  142.4096  164.3332 C.3     1  UNL1        0.0438
     22 C         142.2645  142.1051  167.7245 C.ar    1  UNL1        0.1388
     23 C         140.8640  142.6129  167.5502 C.ar    1  UNL1        0.0384
     24 C         140.4441  143.2223  166.2454 C.ar    1  UNL1        0.0222
     25 C         141.4248  143.3238  165.1150 C.ar    1  UNL1        0.0812
     26 N         141.0049  143.9332  163.8103 N.ar    1  UNL1       -0.2439
     27 C         141.9856  144.0348  162.6798 C.ar    1  UNL1        0.0985
     28 C         143.3862  143.5269  162.8541 C.ar    1  UNL1        0.0165
     29 C         143.8061  142.9175  164.1589 C.ar    1  UNL1       -0.0177
     30 C         142.8253  142.8160  165.2893 C.ar    1  UNL1        0.0168
     31 C         143.2452  142.2066  166.5941 C.ar    1  UNL1        0.0381
     32 C         143.7408  142.1597  169.8616 C.3     1  UNL1        0.2525
     33 O         142.6844  141.4957  169.0292 O.3     1  UNL1       -0.4714
@<TRIPOS>BOND
     1    32    33    1
     2    33    22    1
     3    22    23   ar
     4    23    24   ar
     5    24    25   ar
     6    25    26   ar
     7    26    27   ar
     8    27    28   ar
     9    28    29   ar
    10    29    21    1
    11    21    20    1
    12    20     1    1
    13     1     2    1
    14     2     3    1
    15     3     4    1
    16     4     7    1
    17     7     9    1
    18     9    10    1
    19    10    11   ar
    20    11    12   ar
    21    12    13   ar
    22    13    14   ar
    23    14    15   ar
    24    13    16    1
    25    16    17    1
    26    17    18    1
    27    18    19    1
    28     4     5    1
    29     5     6    1
    30    29    30   ar
    31    30    31   ar
    32    31    22   ar
    33    30    25   ar
    34     6     1    1
    35    15    10   ar
    36    19    12    1
    37     7     8    1
@<TRIPOS>MOLECULE
*****
 33 37 0 0 0
SMALL
GASTEIGER

@<TRIPOS>ATOM
      1 N         139.4206  137.7613  164.4562 N.3     1  UNL1       -0.2723
      2 C         140.8770  137.5285  164.7295 C.3     1  UNL1        0.0735
      3 C         141.8542  137.4753  163.5928 C.3     1  UNL1        0.0331
      4 C         141.3750  137.6548  162.1827 C.3     1  UNL1        0.0570
      5 C         139.9186  137.8876  161.9095 C.3     1  UNL1        0.0331
      6 C         138.9414  137.9408  163.0463 C.3     1  UNL1        0.0735
      7 N         142.3522  137.6016  161.0460 N.3     1  UNL1       -0.2934
      8 H         141.9368  137.0079  160.3281 H       1  UNL1        0.1236
      9 C         142.7812  138.8678  160.3658 C.3     1  UNL1        0.1152
     10 C         143.1955  140.0552  161.1834 C.ar    1  UNL1        0.0782
     11 C         142.3306  141.2802  161.2186 C.ar    1  UNL1        0.0562
     12 C         142.7449  142.4676  162.0363 C.ar    1  UNL1        0.1752
     13 C         144.0241  142.4299  162.8186 C.ar    1  UNL1        0.1914
     14 C         144.8890  141.2049  162.7834 C.ar    1  UNL1        0.1384
     15 N         144.4747  140.0176  161.9658 N.ar    1  UNL1       -0.2434
     16 O         144.4384  143.6173  163.6363 O.3     1  UNL1       -0.4668
     17 C         143.5735  144.8423  163.6715 C.3     1  UNL1        0.2527
     18 C         142.2942  144.8800  162.8891 C.3     1  UNL1        0.2526
     19 O         141.8800  143.6926  162.0715 O.3     1  UNL1       -0.4683
     20 C         138.4433  137.8146  165.5930 C.3     1  UNL1        0.0768
     21 C         138.2495  139.0913  166.3562 C.3     1  UNL1        0.0438
     22 C         142.2636  140.5130  167.8108 C.ar    1  UNL1        0.1388
     23 C         142.8401  141.7949  167.2870 C.ar    1  UNL1        0.0384
     24 C         142.0786  142.6028  166.2784 C.ar    1  UNL1        0.0222
     25 C         140.7406  142.1290  165.7935 C.ar    1  UNL1        0.0812
     26 N         139.9791  142.9369  164.7849 N.ar    1  UNL1       -0.2439
     27 C         138.6411  142.4630  164.3001 C.ar    1  UNL1        0.0985
     28 C         138.0645  141.1811  164.8238 C.ar    1  UNL1        0.0165
     29 C         138.8260  140.3731  165.8325 C.ar    1  UNL1       -0.0177
     30 C         140.1641  140.8471  166.3173 C.ar    1  UNL1        0.0168
     31 C         140.9256  140.0391  167.3259 C.ar    1  UNL1        0.0381
     32 C         142.3065  139.0861  169.9815 C.3     1  UNL1        0.2525
     33 O         143.0251  139.7050  168.8194 O.3     1  UNL1       -0.4714
@<TRIPOS>BOND
     1    32    33    1
     2    33    22    1
     3    22    23   ar
     4    23    24   ar
     5    24    25   ar
     6    25    26   ar
     7    26    27   ar
     8    27    28   ar
     9    28    29   ar
    10    29    21    1
    11    21    20    1
    12    20     1    1
    13     1     2    1
    14     2     3    1
    15     3     4    1
    16     4     7    1
    17     7     9    1
    18     9    10    1
    19    10    11   ar
    20    11    12   ar
    21    12    13   ar
    22    13    14   ar
    23    14    15   ar
    24    13    16    1
    25    16    17    1
    26    17    18    1
    27    18    19    1
    28     4     5    1
    29     5     6    1
    30    29    30   ar
    31    30    31   ar
    32    31    22   ar
    33    30    25   ar
    34     6     1    1
    35    15    10   ar
    36    19    12    1
    37     7     8    1
