@<TRIPOS>MOLECULE
*****
 35 39 0 0 0
SMALL
GASTEIGER

@<TRIPOS>ATOM
      1 C         139.9532  142.4128  160.8368 C.ar    1  UNL1        0.1233
      2 C         139.9562  142.1703  162.3171 C.ar    1  UNL1        0.1181
      3 N         138.6060  142.5467  162.8512 N.ar    1  UNL1       -0.2208
      4 N         137.7685  143.0218  161.7010 N.ar    1  UNL1       -0.0633
      5 N         138.6012  142.9390  160.4560 N.ar    1  UNL1       -0.1287
      6 C         143.1149  140.7178  159.1395 C.ar    1  UNL1        0.1547
      7 C         141.9674  140.9593  160.0747 C.ar    1  UNL1        0.0400
      8 C         141.1009  142.1713  159.9015 C.ar    1  UNL1        0.0241
      9 C         141.3819  143.1420  158.7930 C.ar    1  UNL1        0.0033
     10 C         142.5294  142.9005  157.8577 C.ar    1  UNL1        0.0207
     11 C         143.3960  141.6885  158.0309 C.ar    1  UNL1        0.0994
     12 N         144.5436  141.4470  157.0956 N.ar    1  UNL1       -0.2839
     13 C         144.5878  140.4234  156.0001 C.ar    1  UNL1        0.1826
     14 N         145.9200  140.5306  155.3190 N.ar    1  UNL1       -0.2280
     15 C         146.6991  141.6206  155.9936 C.ar    1  UNL1        0.0786
     16 C         148.0854  142.0659  155.6335 C.3     1  UNL1        0.0538
     17 C         145.8484  142.1869  157.0916 C.ar    1  UNL1        0.0963
     18 C         144.1352  138.8812  160.6678 C.3     1  UNL1        0.2525
     19 O         143.9815  139.5058  159.3127 O.3     1  UNL1       -0.4700
     20 C         138.1699  142.4628  164.2839 C.3     1  UNL1        0.2138
     21 C         139.1320  142.8063  165.3822 C.2     1  UNL1        0.2505
     22 O         139.4440  144.2423  165.6840 O.2     1  UNL1       -0.2727
     23 N         139.7822  141.7142  166.1786 N.am    1  UNL1       -0.2812
     24 C         140.7444  142.0577  167.2768 C.3     1  UNL1        0.0753
     25 C         142.2194  141.8915  167.0609 C.3     1  UNL1        0.0198
     26 C         143.1816  142.2350  168.1592 C.3     1  UNL1        0.0017
     27 C         142.6687  142.7448  169.4734 C.3     1  UNL1        0.0001
     28 C         141.1937  142.9111  169.6893 C.3     1  UNL1        0.0017
     29 C         140.2316  142.5675  168.5911 C.3     1  UNL1        0.0198
     30 C         139.4702  140.2783  165.8767 C.3     1  UNL1        0.0753
     31 C         138.3540  139.5852  166.6003 C.3     1  UNL1        0.0198
     32 C         138.0420  138.1494  166.2985 C.3     1  UNL1        0.0017
     33 C         138.8462  137.4068  165.2729 C.3     1  UNL1        0.0001
     34 C         139.9623  138.0999  164.5493 C.3     1  UNL1        0.0017
     35 C         140.2744  139.5357  164.8512 C.3     1  UNL1        0.0198
@<TRIPOS>BOND
     1    18    19    1
     2    19     6    1
     3     6     7   ar
     4     7     8   ar
     5     8     1    1
     6     1     2   ar
     7     2     3   ar
     8     3    20    1
     9    20    21    1
    10    21    22    2
    11    21    23   am
    12    23    24    1
    13    24    25    1
    14    25    26    1
    15    26    27    1
    16    27    28    1
    17    28    29    1
    18    23    30    1
    19    30    31    1
    20    31    32    1
    21    32    33    1
    22    33    34    1
    23    34    35    1
    24     3     4   ar
    25     4     5   ar
    26     8     9   ar
    27     9    10   ar
    28    10    11   ar
    29    11    12    1
    30    12    13   ar
    31    13    14   ar
    32    14    15   ar
    33    15    16    1
    34    15    17   ar
    35    11     6   ar
    36    17    12   ar
    37     5     1   ar
    38    29    24    1
    39    35    30    1
@<TRIPOS>MOLECULE
*****
 35 39 0 0 0
SMALL
GASTEIGER

@<TRIPOS>ATOM
      1 C         140.0953  138.5304  162.4615 C.ar    1  UNL1        0.1233
      2 C         139.8255  139.8161  163.1854 C.ar    1  UNL1        0.1181
      3 N         139.0805  139.4907  164.4460 N.ar    1  UNL1       -0.2208
      4 N         138.8899  138.0039  164.5012 N.ar    1  UNL1       -0.0633
      5 N         139.5171  137.4104  163.2746 N.ar    1  UNL1       -0.1287
      6 C         140.8154  138.5130  158.5587 C.ar    1  UNL1        0.1547
      7 C         140.0940  138.6539  159.8663 C.ar    1  UNL1        0.0400
      8 C         140.8167  138.3895  161.1538 C.ar    1  UNL1        0.0241
      9 C         142.2607  137.9841  161.1338 C.ar    1  UNL1        0.0033
     10 C         142.9821  137.8432  159.8263 C.ar    1  UNL1        0.0207
     11 C         142.2594  138.1076  158.5387 C.ar    1  UNL1        0.0994
     12 N         142.9808  137.9666  157.2311 N.ar    1  UNL1       -0.2839
     13 C         143.2613  136.6799  156.5131 C.ar    1  UNL1        0.1826
     14 N         144.0022  137.0057  155.2502 N.ar    1  UNL1       -0.2280
     15 C         144.1796  138.4939  155.1877 C.ar    1  UNL1        0.0786
     16 C         144.8675  139.2546  154.0931 C.3     1  UNL1        0.0538
     17 C         143.5483  139.0877  156.4119 C.ar    1  UNL1        0.0963
     18 C         139.5899  137.6314  156.4443 C.3     1  UNL1        0.2525
     19 O         140.0927  138.7774  157.2712 O.3     1  UNL1       -0.4700
     20 C         138.6090  140.4787  165.4715 C.3     1  UNL1        0.2138
     21 C         139.4648  140.7885  166.6638 C.2     1  UNL1        0.2505
     22 O         139.4942  139.8466  167.8310 O.2     1  UNL1       -0.2727
     23 N         140.2913  142.0399  166.6890 N.am    1  UNL1       -0.2812
     24 C         141.1472  142.3496  167.8813 C.3     1  UNL1        0.0753
     25 C         142.5908  141.9427  167.8942 C.3     1  UNL1        0.0198
     26 C         143.4467  142.2524  169.0864 C.3     1  UNL1        0.0017
     27 C         142.8589  142.9692  170.2658 C.3     1  UNL1        0.0001
     28 C         141.4153  143.3761  170.2529 C.3     1  UNL1        0.0017
     29 C         140.5594  143.0664  169.0606 C.3     1  UNL1        0.0198
     30 C         140.2619  142.9817  165.5218 C.3     1  UNL1        0.0753
     31 C         141.3339  142.9123  164.4749 C.3     1  UNL1        0.0198
     32 C         141.3045  143.8540  163.3077 C.3     1  UNL1        0.0017
     33 C         140.2031  144.8651  163.1875 C.3     1  UNL1        0.0001
     34 C         139.1311  144.9346  164.2344 C.3     1  UNL1        0.0017
     35 C         139.1605  143.9928  165.4015 C.3     1  UNL1        0.0198
@<TRIPOS>BOND
     1    18    19    1
     2    19     6    1
     3     6     7   ar
     4     7     8   ar
     5     8     1    1
     6     1     2   ar
     7     2     3   ar
     8     3    20    1
     9    20    21    1
    10    21    22    2
    11    21    23   am
    12    23    24    1
    13    24    25    1
    14    25    26    1
    15    26    27    1
    16    27    28    1
    17    28    29    1
    18    23    30    1
    19    30    31    1
    20    31    32    1
    21    32    33    1
    22    33    34    1
    23    34    35    1
    24     3     4   ar
    25     4     5   ar
    26     8     9   ar
    27     9    10   ar
    28    10    11   ar
    29    11    12    1
    30    12    13   ar
    31    13    14   ar
    32    14    15   ar
    33    15    16    1
    34    15    17   ar
    35    11     6   ar
    36    17    12   ar
    37     5     1   ar
    38    29    24    1
    39    35    30    1
@<TRIPOS>MOLECULE
*****
 35 39 0 0 0
SMALL
GASTEIGER

@<TRIPOS>ATOM
      1 C         143.6858  140.7324  161.7474 C.ar    1  UNL1        0.1233
      2 C         142.6837  141.4938  162.5636 C.ar    1  UNL1        0.1181
      3 N         143.4355  142.3637  163.5270 N.ar    1  UNL1       -0.2208
      4 N         144.9022  142.1399  163.3062 N.ar    1  UNL1       -0.0633
      5 N         145.0569  141.1318  162.2064 N.ar    1  UNL1       -0.1287
      6 C         142.9543  139.2162  158.1535 C.ar    1  UNL1        0.1547
      7 C         143.2681  140.2035  159.2382 C.ar    1  UNL1        0.0400
      8 C         143.3719  139.7450  160.6626 C.ar    1  UNL1        0.0241
      9 C         143.1617  138.2992  161.0024 C.ar    1  UNL1        0.0033
     10 C         142.8479  137.3119  159.9176 C.ar    1  UNL1        0.0207
     11 C         142.7441  137.7704  158.4932 C.ar    1  UNL1        0.0994
     12 N         142.4302  136.7830  157.4084 N.ar    1  UNL1       -0.2839
     13 C         141.2852  136.8680  156.4432 C.ar    1  UNL1        0.1826
     14 N         141.3536  135.6748  155.5368 N.ar    1  UNL1       -0.2280
     15 C         142.5410  134.8524  155.9418 C.ar    1  UNL1        0.0786
     16 C         142.9849  133.5703  155.3023 C.3     1  UNL1        0.0538
     17 C         143.2063  135.5374  157.0985 C.ar    1  UNL1        0.0963
     18 C         144.0825  140.0995  155.9863 C.3     1  UNL1        0.2525
     19 O         142.8506  139.6747  156.7290 O.3     1  UNL1       -0.4700
     20 C         142.8273  143.2940  164.5343 C.3     1  UNL1        0.2138
     21 C         142.3901  142.7709  165.8704 C.2     1  UNL1        0.2505
     22 O         143.4126  142.4343  166.9151 O.2     1  UNL1       -0.2727
     23 N         140.9307  142.5842  166.1618 N.am    1  UNL1       -0.2812
     24 C         140.4935  142.0611  167.4979 C.3     1  UNL1        0.0753
     25 C         140.4551  142.9763  168.6857 C.3     1  UNL1        0.0198
     26 C         140.0179  142.4532  170.0218 C.3     1  UNL1        0.0017
     27 C         139.6191  141.0148  170.1701 C.3     1  UNL1        0.0001
     28 C         139.6575  140.0995  168.9823 C.3     1  UNL1        0.0017
     29 C         140.0947  140.6227  167.6462 C.3     1  UNL1        0.0198
     30 C         139.9083  142.9208  165.1170 C.3     1  UNL1        0.0753
     31 C         139.4275  141.8619  164.1696 C.3     1  UNL1        0.0198
     32 C         138.4051  142.1984  163.1248 C.3     1  UNL1        0.0017
     33 C         137.8636  143.5938  163.0275 C.3     1  UNL1        0.0001
     34 C         138.3443  144.6527  163.9748 C.3     1  UNL1        0.0017
     35 C         139.3667  144.3162  165.0196 C.3     1  UNL1        0.0198
@<TRIPOS>BOND
     1    18    19    1
     2    19     6    1
     3     6     7   ar
     4     7     8   ar
     5     8     1    1
     6     1     2   ar
     7     2     3   ar
     8     3    20    1
     9    20    21    1
    10    21    22    2
    11    21    23   am
    12    23    24    1
    13    24    25    1
    14    25    26    1
    15    26    27    1
    16    27    28    1
    17    28    29    1
    18    23    30    1
    19    30    31    1
    20    31    32    1
    21    32    33    1
    22    33    34    1
    23    34    35    1
    24     3     4   ar
    25     4     5   ar
    26     8     9   ar
    27     9    10   ar
    28    10    11   ar
    29    11    12    1
    30    12    13   ar
    31    13    14   ar
    32    14    15   ar
    33    15    16    1
    34    15    17   ar
    35    11     6   ar
    36    17    12   ar
    37     5     1   ar
    38    29    24    1
    39    35    30    1
@<TRIPOS>MOLECULE
*****
 35 39 0 0 0
SMALL
GASTEIGER

@<TRIPOS>ATOM
      1 C         139.3361  141.1761  160.9214 C.ar    1  UNL1        0.1233
      2 C         139.2920  141.0280  162.4134 C.ar    1  UNL1        0.1181
      3 N         138.3292  142.0443  162.9519 N.ar    1  UNL1       -0.2208
      4 N         137.7782  142.8207  161.7927 N.ar    1  UNL1       -0.0633
      5 N         138.4005  142.2840  160.5378 N.ar    1  UNL1       -0.1287
      6 C         142.0002  138.5610  159.5747 C.ar    1  UNL1        0.1547
      7 C         141.1668  139.3774  160.5175 C.ar    1  UNL1        0.0400
      8 C         140.1694  140.3596  159.9785 C.ar    1  UNL1        0.0241
      9 C         140.0053  140.5254  158.4968 C.ar    1  UNL1        0.0033
     10 C         140.8386  139.7089  157.5540 C.ar    1  UNL1        0.0207
     11 C         141.8361  138.7267  158.0929 C.ar    1  UNL1        0.0994
     12 N         142.6694  137.9102  157.1500 N.ar    1  UNL1       -0.2839
     13 C         143.7706  138.4275  156.2727 C.ar    1  UNL1        0.1826
     14 N         144.3296  137.2701  155.4994 N.ar    1  UNL1       -0.2280
     15 C         143.5739  136.0375  155.8989 C.ar    1  UNL1        0.0786
     16 C         143.8038  134.6524  155.3709 C.3     1  UNL1        0.0538
     17 C         142.5478  136.4331  156.9190 C.ar    1  UNL1        0.0963
     18 C         143.8555  137.9485  161.2871 C.3     1  UNL1        0.2525
     19 O         142.9976  137.5788  160.1136 O.3     1  UNL1       -0.4700
     20 C         137.9789  142.2486  164.3961 C.3     1  UNL1        0.2138
     21 C         139.0491  142.6074  165.3840 C.2     1  UNL1        0.2505
     22 O         139.4700  144.0379  165.5472 O.2     1  UNL1       -0.2727
     23 N         139.6984  141.5358  166.2086 N.am    1  UNL1       -0.2812
     24 C         140.7686  141.8946  167.1965 C.3     1  UNL1        0.0753
     25 C         142.2096  141.8783  166.7801 C.3     1  UNL1        0.0198
     26 C         143.2798  142.2370  167.7680 C.3     1  UNL1        0.0017
     27 C         142.9090  142.6121  169.1722 C.3     1  UNL1        0.0001
     28 C         141.4681  142.6284  169.5886 C.3     1  UNL1        0.0017
     29 C         140.3979  142.2697  168.6007 C.3     1  UNL1        0.0198
     30 C         139.2774  140.1053  166.0453 C.3     1  UNL1        0.0753
     31 C         138.1500  139.5567  166.8687 C.3     1  UNL1        0.0198
     32 C         137.7290  138.1263  166.7054 C.3     1  UNL1        0.0017
     33 C         138.4355  137.2445  165.7188 C.3     1  UNL1        0.0001
     34 C         139.5628  137.7932  164.8955 C.3     1  UNL1        0.0017
     35 C         139.9838  139.2236  165.0587 C.3     1  UNL1        0.0198
@<TRIPOS>BOND
     1    18    19    1
     2    19     6    1
     3     6     7   ar
     4     7     8   ar
     5     8     1    1
     6     1     2   ar
     7     2     3   ar
     8     3    20    1
     9    20    21    1
    10    21    22    2
    11    21    23   am
    12    23    24    1
    13    24    25    1
    14    25    26    1
    15    26    27    1
    16    27    28    1
    17    28    29    1
    18    23    30    1
    19    30    31    1
    20    31    32    1
    21    32    33    1
    22    33    34    1
    23    34    35    1
    24     3     4   ar
    25     4     5   ar
    26     8     9   ar
    27     9    10   ar
    28    10    11   ar
    29    11    12    1
    30    12    13   ar
    31    13    14   ar
    32    14    15   ar
    33    15    16    1
    34    15    17   ar
    35    11     6   ar
    36    17    12   ar
    37     5     1   ar
    38    29    24    1
    39    35    30    1
@<TRIPOS>MOLECULE
*****
 35 39 0 0 0
SMALL
GASTEIGER

@<TRIPOS>ATOM
      1 C         141.3784  138.9442  161.1618 C.ar    1  UNL1        0.1233
      2 C         142.0385  140.1824  161.6919 C.ar    1  UNL1        0.1181
      3 N         141.7191  140.2884  163.1536 N.ar    1  UNL1       -0.2208
      4 N         140.8615  139.1157  163.5270 N.ar    1  UNL1       -0.0633
      5 N         140.6509  138.2850  162.2959 N.ar    1  UNL1       -0.1287
      6 C         140.2839  138.0683  157.4489 C.ar    1  UNL1        0.1547
      7 C         140.2268  138.5608  158.8646 C.ar    1  UNL1        0.0400
      8 C         141.4356  138.4517  159.7460 C.ar    1  UNL1        0.0241
      9 C         142.7015  137.8500  159.2118 C.ar    1  UNL1        0.0033
     10 C         142.7586  137.3575  157.7962 C.ar    1  UNL1        0.0207
     11 C         141.5499  137.4667  156.9147 C.ar    1  UNL1        0.0994
     12 N         141.6071  136.9741  155.4990 N.ar    1  UNL1       -0.2839
     13 C         141.7605  137.8266  154.2744 C.ar    1  UNL1        0.1826
     14 N         141.7691  136.9220  153.0779 N.ar    1  UNL1       -0.2280
     15 C         141.6210  135.5103  153.5631 C.ar    1  UNL1        0.0786
     16 C         141.5802  134.2821  152.7030 C.3     1  UNL1        0.0538
     17 C         141.5209  135.5426  155.0594 C.ar    1  UNL1        0.0963
     18 C         138.7441  139.4826  155.9067 C.3     1  UNL1        0.2525
     19 O         139.0751  138.1774  156.5675 O.3     1  UNL1       -0.4700
     20 C         142.1769  141.3761  164.0795 C.3     1  UNL1        0.2138
     21 C         141.8683  141.2929  165.5450 C.2     1  UNL1        0.2505
     22 O         142.8191  140.5968  166.4734 O.2     1  UNL1       -0.2727
     23 N         140.6090  141.9055  166.0823 N.am    1  UNL1       -0.2812
     24 C         140.3003  141.8222  167.5478 C.3     1  UNL1        0.0753
     25 C         140.5527  143.0046  168.4358 C.3     1  UNL1        0.0198
     26 C         140.2440  142.9213  169.9013 C.3     1  UNL1        0.0017
     27 C         139.6830  141.6557  170.4789 C.3     1  UNL1        0.0001
     28 C         139.4307  140.4734  169.5910 C.3     1  UNL1        0.0017
     29 C         139.7394  140.5566  168.1255 C.3     1  UNL1        0.0198
     30 C         139.6583  142.6015  165.1539 C.3     1  UNL1        0.0753
     31 C         138.5516  141.8306  164.4975 C.3     1  UNL1        0.0198
     32 C         137.6009  142.5265  163.5691 C.3     1  UNL1        0.0017
     33 C         137.7569  143.9934  163.2973 C.3     1  UNL1        0.0001
     34 C         138.8635  144.7643  163.9538 C.3     1  UNL1        0.0017
     35 C         139.8142  144.0684  164.8821 C.3     1  UNL1        0.0198
@<TRIPOS>BOND
     1    18    19    1
     2    19     6    1
     3     6     7   ar
     4     7     8   ar
     5     8     1    1
     6     1     2   ar
     7     2     3   ar
     8     3    20    1
     9    20    21    1
    10    21    22    2
    11    21    23   am
    12    23    24    1
    13    24    25    1
    14    25    26    1
    15    26    27    1
    16    27    28    1
    17    28    29    1
    18    23    30    1
    19    30    31    1
    20    31    32    1
    21    32    33    1
    22    33    34    1
    23    34    35    1
    24     3     4   ar
    25     4     5   ar
    26     8     9   ar
    27     9    10   ar
    28    10    11   ar
    29    11    12    1
    30    12    13   ar
    31    13    14   ar
    32    14    15   ar
    33    15    16    1
    34    15    17   ar
    35    11     6   ar
    36    17    12   ar
    37     5     1   ar
    38    29    24    1
    39    35    30    1
@<TRIPOS>MOLECULE
*****
 35 39 0 0 0
SMALL
GASTEIGER

@<TRIPOS>ATOM
      1 C         142.9816  140.2350  161.2972 C.ar    1  UNL1        0.1233
      2 C         141.8726  140.8988  162.0584 C.ar    1  UNL1        0.1181
      3 N         141.5666  140.0561  163.2610 N.ar    1  UNL1       -0.2208
      4 N         142.4866  138.8714  163.2431 N.ar    1  UNL1       -0.0633
      5 N         143.3611  138.9820  162.0294 N.ar    1  UNL1       -0.1287
      6 C         144.3283  140.3317  157.5654 C.ar    1  UNL1        0.1547
      7 C         143.7077  139.8307  158.8357 C.ar    1  UNL1        0.0400
      8 C         143.6022  140.7361  160.0269 C.ar    1  UNL1        0.0241
      9 C         144.1173  142.1426  159.9478 C.ar    1  UNL1        0.0033
     10 C         144.7379  142.6437  158.6775 C.ar    1  UNL1        0.0207
     11 C         144.8434  141.7382  157.4863 C.ar    1  UNL1        0.0994
     12 N         145.4641  142.2394  156.2159 N.ar    1  UNL1       -0.2839
     13 C         144.7289  142.8221  155.0455 C.ar    1  UNL1        0.1826
     14 N         145.7393  143.1886  153.9992 N.ar    1  UNL1       -0.2280
     15 C         147.0990  142.8324  154.5230 C.ar    1  UNL1        0.0786
     16 C         148.4003  143.0285  153.8032 C.3     1  UNL1        0.0538
     17 C         146.9289  142.2458  155.8930 C.ar    1  UNL1        0.0963
     18 C         143.3583  138.4168  156.1017 C.3     1  UNL1        0.2525
     19 O         144.4338  139.4263  156.3741 O.3     1  UNL1       -0.4700
     20 C         140.5238  140.3470  164.2993 C.3     1  UNL1        0.2138
     21 C         140.9338  140.6479  165.7104 C.2     1  UNL1        0.2505
     22 O         141.0452  139.5368  166.7121 O.2     1  UNL1       -0.2727
     23 N         141.2325  142.0596  166.1199 N.am    1  UNL1       -0.2812
     24 C         141.6426  142.3604  167.5311 C.3     1  UNL1        0.0753
     25 C         143.0567  142.1188  167.9688 C.3     1  UNL1        0.0198
     26 C         143.4668  142.4197  169.3800 C.3     1  UNL1        0.0017
     27 C         142.4626  142.9622  170.3533 C.3     1  UNL1        0.0001
     28 C         141.0484  143.2038  169.9156 C.3     1  UNL1        0.0017
     29 C         140.6384  142.9029  168.5044 C.3     1  UNL1        0.0198
     30 C         141.1211  143.1705  165.1181 C.3     1  UNL1        0.0753
     31 C         142.3407  143.6434  164.3839 C.3     1  UNL1        0.0198
     32 C         142.2294  144.7543  163.3822 C.3     1  UNL1        0.0017
     33 C         140.8985  145.3923  163.1147 C.3     1  UNL1        0.0001
     34 C         139.6790  144.9195  163.8489 C.3     1  UNL1        0.0017
     35 C         139.7903  143.8086  164.8506 C.3     1  UNL1        0.0198
@<TRIPOS>BOND
     1    18    19    1
     2    19     6    1
     3     6     7   ar
     4     7     8   ar
     5     8     1    1
     6     1     2   ar
     7     2     3   ar
     8     3    20    1
     9    20    21    1
    10    21    22    2
    11    21    23   am
    12    23    24    1
    13    24    25    1
    14    25    26    1
    15    26    27    1
    16    27    28    1
    17    28    29    1
    18    23    30    1
    19    30    31    1
    20    31    32    1
    21    32    33    1
    22    33    34    1
    23    34    35    1
    24     3     4   ar
    25     4     5   ar
    26     8     9   ar
    27     9    10   ar
    28    10    11   ar
    29    11    12    1
    30    12    13   ar
    31    13    14   ar
    32    14    15   ar
    33    15    16    1
    34    15    17   ar
    35    11     6   ar
    36    17    12   ar
    37     5     1   ar
    38    29    24    1
    39    35    30    1
@<TRIPOS>MOLECULE
*****
 35 39 0 0 0
SMALL
GASTEIGER

@<TRIPOS>ATOM
      1 C         140.5050  139.4677  161.8928 C.ar    1  UNL1        0.1233
      2 C         140.0606  140.5205  162.8644 C.ar    1  UNL1        0.1181
      3 N         139.2629  139.8490  163.9428 N.ar    1  UNL1       -0.2208
      4 N         139.2143  138.3811  163.6375 N.ar    1  UNL1       -0.0633
      5 N         139.9820  138.1455  162.3706 N.ar    1  UNL1       -0.1287
      6 C         142.6766  138.7567  158.6480 C.ar    1  UNL1        0.1547
      7 C         141.8536  138.5276  159.8809 C.ar    1  UNL1        0.0400
      8 C         141.3280  139.6969  160.6598 C.ar    1  UNL1        0.0241
      9 C         141.6253  141.0952  160.2056 C.ar    1  UNL1        0.0033
     10 C         142.4482  141.3243  158.9727 C.ar    1  UNL1        0.0207
     11 C         142.9739  140.1550  158.1938 C.ar    1  UNL1        0.0994
     12 N         143.7968  140.3842  156.9608 N.ar    1  UNL1       -0.2839
     13 C         143.3651  140.1143  155.5499 C.ar    1  UNL1        0.1826
     14 N         144.4975  140.4868  154.6394 N.ar    1  UNL1       -0.2280
     15 C         145.6291  140.9868  155.4876 C.ar    1  UNL1        0.0786
     16 C         146.9600  141.4661  154.9887 C.3     1  UNL1        0.0538
     17 C         145.1961  140.9234  156.9223 C.ar    1  UNL1        0.0963
     18 C         142.2806  136.7986  156.9870 C.3     1  UNL1        0.2525
     19 O         143.2022  137.5875  157.8692 O.3     1  UNL1       -0.4700
     20 C         138.6257  140.5264  165.1197 C.3     1  UNL1        0.2138
     21 C         139.4355  140.8126  166.3494 C.2     1  UNL1        0.2505
     22 O         139.4800  139.8135  167.4674 O.2     1  UNL1       -0.2727
     23 N         140.2008  142.0977  166.4611 N.am    1  UNL1       -0.2812
     24 C         141.0107  142.3839  167.6908 C.3     1  UNL1        0.0753
     25 C         140.4161  143.1852  168.8108 C.3     1  UNL1        0.0198
     26 C         141.2259  143.4714  170.0405 C.3     1  UNL1        0.0017
     27 C         142.6305  142.9564  170.1502 C.3     1  UNL1        0.0001
     28 C         143.2251  142.1551  169.0303 C.3     1  UNL1        0.0017
     29 C         142.4153  141.8689  167.8006 C.3     1  UNL1        0.0198
     30 C         140.1563  143.0968  165.3431 C.3     1  UNL1        0.0753
     31 C         138.8676  143.7853  165.0034 C.3     1  UNL1        0.0198
     32 C         138.8230  144.7843  163.8854 C.3     1  UNL1        0.0017
     33 C         140.0671  145.0948  163.1070 C.3     1  UNL1        0.0001
     34 C         141.3557  144.4063  163.4467 C.3     1  UNL1        0.0017
     35 C         141.4003  143.4073  164.5647 C.3     1  UNL1        0.0198
@<TRIPOS>BOND
     1    18    19    1
     2    19     6    1
     3     6     7   ar
     4     7     8   ar
     5     8     1    1
     6     1     2   ar
     7     2     3   ar
     8     3    20    1
     9    20    21    1
    10    21    22    2
    11    21    23   am
    12    23    24    1
    13    24    25    1
    14    25    26    1
    15    26    27    1
    16    27    28    1
    17    28    29    1
    18    23    30    1
    19    30    31    1
    20    31    32    1
    21    32    33    1
    22    33    34    1
    23    34    35    1
    24     3     4   ar
    25     4     5   ar
    26     8     9   ar
    27     9    10   ar
    28    10    11   ar
    29    11    12    1
    30    12    13   ar
    31    13    14   ar
    32    14    15   ar
    33    15    16    1
    34    15    17   ar
    35    11     6   ar
    36    17    12   ar
    37     5     1   ar
    38    29    24    1
    39    35    30    1
@<TRIPOS>MOLECULE
*****
 35 39 0 0 0
SMALL
GASTEIGER

@<TRIPOS>ATOM
      1 C         140.3126  138.7760  162.3263 C.ar    1  UNL1        0.1233
      2 C         139.5769  139.8654  163.0488 C.ar    1  UNL1        0.1181
      3 N         139.5364  139.5101  164.5055 N.ar    1  UNL1       -0.2208
      4 N         140.2471  138.2011  164.6834 N.ar    1  UNL1       -0.0633
      5 N         140.7268  137.7474  163.3365 N.ar    1  UNL1       -0.1287
      6 C         142.2538  138.8831  158.8664 C.ar    1  UNL1        0.1547
      7 C         141.9803  138.9348  160.3404 C.ar    1  UNL1        0.0400
      8 C         140.5861  138.7243  160.8523 C.ar    1  UNL1        0.0241
      9 C         139.4655  138.4620  159.8903 C.ar    1  UNL1        0.0033
     10 C         139.7391  138.4103  158.4164 C.ar    1  UNL1        0.0207
     11 C         141.1332  138.6208  157.9045 C.ar    1  UNL1        0.0994
     12 N         141.4068  138.5691  156.4305 N.ar    1  UNL1       -0.2839
     13 C         141.6129  139.7508  155.5300 C.ar    1  UNL1        0.1826
     14 N         141.8557  139.2386  154.1412 N.ar    1  UNL1       -0.2280
     15 C         141.7996  137.7402  154.1834 C.ar    1  UNL1        0.0786
     16 C         141.9879  136.8176  153.0158 C.3     1  UNL1        0.0538
     17 C         141.5222  137.3264  155.5983 C.ar    1  UNL1        0.0963
     18 C         144.1678  140.4849  158.1450 C.3     1  UNL1        0.2525
     19 O         143.6479  139.0936  158.3545 O.3     1  UNL1       -0.4700
     20 C         138.8974  140.3213  165.5935 C.3     1  UNL1        0.2138
     21 C         139.6908  140.7052  166.8072 C.2     1  UNL1        0.2505
     22 O         139.7390  139.7875  167.9929 O.2     1  UNL1       -0.2727
     23 N         140.4359  142.0067  166.8355 N.am    1  UNL1       -0.2812
     24 C         141.2292  142.3906  168.0493 C.3     1  UNL1        0.0753
     25 C         140.5909  143.2041  169.1360 C.3     1  UNL1        0.0198
     26 C         141.3843  143.5880  170.3497 C.3     1  UNL1        0.0017
     27 C         142.8158  143.1584  170.4768 C.3     1  UNL1        0.0001
     28 C         143.4541  142.3450  169.3901 C.3     1  UNL1        0.0017
     29 C         142.6607  141.9611  168.1764 C.3     1  UNL1        0.0198
     30 C         140.3876  142.9244  165.6499 C.3     1  UNL1        0.0753
     31 C         141.4375  142.8270  164.5829 C.3     1  UNL1        0.0198
     32 C         141.3893  143.7446  163.3973 C.3     1  UNL1        0.0017
     33 C         140.2912  144.7596  163.2787 C.3     1  UNL1        0.0001
     34 C         139.2414  144.8569  164.3456 C.3     1  UNL1        0.0017
     35 C         139.2896  143.9393  165.5312 C.3     1  UNL1        0.0198
@<TRIPOS>BOND
     1    18    19    1
     2    19     6    1
     3     6     7   ar
     4     7     8   ar
     5     8     1    1
     6     1     2   ar
     7     2     3   ar
     8     3    20    1
     9    20    21    1
    10    21    22    2
    11    21    23   am
    12    23    24    1
    13    24    25    1
    14    25    26    1
    15    26    27    1
    16    27    28    1
    17    28    29    1
    18    23    30    1
    19    30    31    1
    20    31    32    1
    21    32    33    1
    22    33    34    1
    23    34    35    1
    24     3     4   ar
    25     4     5   ar
    26     8     9   ar
    27     9    10   ar
    28    10    11   ar
    29    11    12    1
    30    12    13   ar
    31    13    14   ar
    32    14    15   ar
    33    15    16    1
    34    15    17   ar
    35    11     6   ar
    36    17    12   ar
    37     5     1   ar
    38    29    24    1
    39    35    30    1
@<TRIPOS>MOLECULE
*****
 35 39 0 0 0
SMALL
GASTEIGER

@<TRIPOS>ATOM
      1 C         140.0082  142.4114  161.1238 C.ar    1  UNL1        0.1233
      2 C         141.1997  141.8340  161.8287 C.ar    1  UNL1        0.1181
      3 N         140.7043  141.0312  162.9949 N.ar    1  UNL1       -0.2208
      4 N         139.2065  141.1124  163.0108 N.ar    1  UNL1       -0.0633
      5 N         138.7763  141.9654  161.8544 N.ar    1  UNL1       -0.1287
      6 C         139.2043  143.8287  157.5051 C.ar    1  UNL1        0.1547
      7 C         139.1701  142.9582  158.7262 C.ar    1  UNL1        0.0400
      8 C         140.0424  143.2819  159.9027 C.ar    1  UNL1        0.0241
      9 C         140.9490  144.4761  159.8581 C.ar    1  UNL1        0.0033
     10 C         140.9832  145.3466  158.6371 C.ar    1  UNL1        0.0207
     11 C         140.1108  145.0229  157.4605 C.ar    1  UNL1        0.0994
     12 N         140.1451  145.8934  156.2394 N.ar    1  UNL1       -0.2839
     13 C         139.3009  147.1100  156.0000 C.ar    1  UNL1        0.1826
     14 N         139.6636  147.6686  154.6560 N.ar    1  UNL1       -0.2280
     15 C         140.7320  146.7973  154.0647 C.ar    1  UNL1        0.0786
     16 C         141.3876  146.9894  152.7294 C.3     1  UNL1        0.0538
     17 C         141.0295  145.7002  155.0434 C.ar    1  UNL1        0.0963
     18 C         137.2204  142.5079  156.4708 C.3     1  UNL1        0.2525
     19 O         138.3319  143.5050  156.3286 O.3     1  UNL1       -0.4700
     20 C         141.5569  140.2792  163.9735 C.3     1  UNL1        0.2138
     21 C         141.4925  140.6117  165.4348 C.2     1  UNL1        0.2505
     22 O         140.9792  139.5967  166.4129 O.2     1  UNL1       -0.2727
     23 N         141.9412  141.9588  165.9180 N.am    1  UNL1       -0.2812
     24 C         141.8767  142.2912  167.3793 C.3     1  UNL1        0.0753
     25 C         143.1077  142.1788  168.2290 C.3     1  UNL1        0.0198
     26 C         143.0433  142.5112  169.6903 C.3     1  UNL1        0.0017
     27 C         141.7478  142.9561  170.3018 C.3     1  UNL1        0.0001
     28 C         140.5169  143.0685  169.4521 C.3     1  UNL1        0.0017
     29 C         140.5813  142.7361  167.9909 C.3     1  UNL1        0.0198
     30 C         142.4544  142.9737  164.9399 C.3     1  UNL1        0.0753
     31 C         143.8533  142.8638  164.4097 C.3     1  UNL1        0.0198
     32 C         144.3666  143.8786  163.4316 C.3     1  UNL1        0.0017
     33 C         143.4810  145.0033  162.9837 C.3     1  UNL1        0.0001
     34 C         142.0822  145.1132  163.5138 C.3     1  UNL1        0.0017
     35 C         141.5689  144.0984  164.4919 C.3     1  UNL1        0.0198
@<TRIPOS>BOND
     1    18    19    1
     2    19     6    1
     3     6     7   ar
     4     7     8   ar
     5     8     1    1
     6     1     2   ar
     7     2     3   ar
     8     3    20    1
     9    20    21    1
    10    21    22    2
    11    21    23   am
    12    23    24    1
    13    24    25    1
    14    25    26    1
    15    26    27    1
    16    27    28    1
    17    28    29    1
    18    23    30    1
    19    30    31    1
    20    31    32    1
    21    32    33    1
    22    33    34    1
    23    34    35    1
    24     3     4   ar
    25     4     5   ar
    26     8     9   ar
    27     9    10   ar
    28    10    11   ar
    29    11    12    1
    30    12    13   ar
    31    13    14   ar
    32    14    15   ar
    33    15    16    1
    34    15    17   ar
    35    11     6   ar
    36    17    12   ar
    37     5     1   ar
    38    29    24    1
    39    35    30    1
