@<TRIPOS>MOLECULE
*****
 35 40 0 0 0
SMALL
GASTEIGER

@<TRIPOS>ATOM
      1 N         139.9363  145.2280  160.1565 N.am    1  UNL1       -0.2497
      2 C         140.4720  144.1230  161.0179 C.2     1  UNL1        0.3248
      3 O         141.6914  143.3618  160.5891 O.2     1  UNL1       -0.2488
      4 N         139.7884  143.7792  162.3081 N.ar    1  UNL1       -0.2609
      5 C         138.5669  144.4488  162.8643 C.ar    1  UNL1        0.0842
      6 C         138.2299  143.7889  164.1686 C.ar    1  UNL1        0.0207
      7 C         139.2431  142.7115  164.4183 C.ar    1  UNL1        0.0208
      8 C         139.4131  141.7350  165.5442 C.ar    1  UNL1        0.0390
      9 C         140.5464  140.7526  165.5203 C.ar    1  UNL1        0.1473
     10 C         141.5096  140.7466  164.3704 C.ar    1  UNL1        0.0390
     11 C         141.3396  141.7230  163.2445 C.ar    1  UNL1        0.0208
     12 C         140.2064  142.7055  163.2685 C.ar    1  UNL1        0.0683
     13 H         139.1360  145.7276  160.4380 H       1  UNL1        0.1581
     14 C         141.0184  146.0373  156.5180 C.ar    1  UNL1        0.0537
     15 C         139.9647  145.6710  157.5206 C.ar    1  UNL1        0.0502
     16 C         140.6198  145.5718  158.8664 C.ar    1  UNL1        0.1561
     17 N         142.0786  145.8767  158.6953 N.ar    1  UNL1       -0.1577
     18 N         142.3249  146.1644  157.2439 N.ar    1  UNL1       -0.2786
     19 H         143.1918  146.3960  156.8389 H       1  UNL1        0.1886
     20 C         139.7570  147.3148  155.0833 C.3     1  UNL1        0.0059
     21 C         140.8034  146.2407  155.0474 C.3     1  UNL1        0.0349
     22 C         140.9519  146.0710  153.5644 C.3     1  UNL1        0.0059
     23 C         141.7752  145.2372  154.5009 C.3     1  UNL1        0.0059
     24 O         140.7164  139.7762  166.6462 O.3     1  UNL1       -0.4363
     25 C         140.3328  140.1673  168.0425 C.ar    1  UNL1        0.2282
     26 N         139.0035  139.7516  168.5995 N.ar    1  UNL1       -0.1893
     27 C         138.6199  140.1427  169.9958 C.ar    1  UNL1        0.2012
     28 N         139.5655  140.9496  170.8353 N.ar    1  UNL1       -0.2271
     29 C         140.8949  141.3654  170.2784 C.ar    1  UNL1        0.0772
     30 C         141.2785  140.9742  168.8820 C.ar    1  UNL1        0.0477
     31 C         142.6077  141.3900  168.3251 C.3     1  UNL1        0.0494
     32 C         143.5534  142.1968  169.1645 C.3     1  UNL1        0.0738
     33 N         143.1697  142.5880  170.5609 N.3     1  UNL1       -0.2922
     34 C         141.8405  142.1722  171.1178 C.3     1  UNL1        0.1150
     35 H         143.1998  143.6068  170.6001 H       1  UNL1        0.1236
@<TRIPOS>BOND
     1    20    21    1
     2    21    14    1
     3    14    15   ar
     4    15    16   ar
     5    16     1    1
     6     1     2   am
     7     2     3    2
     8     2     4   am
     9     4     5   ar
    10     5     6   ar
    11     6     7   ar
    12     7     8   ar
    13     8     9   ar
    14     9    24    1
    15    24    25    1
    16    25    26   ar
    17    26    27   ar
    18    27    28   ar
    19    28    29   ar
    20    29    30   ar
    21    30    31    1
    22    31    32    1
    23    32    33    1
    24    33    34    1
    25     9    10   ar
    26    10    11   ar
    27    11    12   ar
    28    16    17   ar
    29    17    18   ar
    30    21    22    1
    31    22    23    1
    32    23    21    1
    33    18    14   ar
    34    12     4   ar
    35    12     7   ar
    36    30    25   ar
    37    34    29    1
    38     1    13    1
    39    33    35    1
    40    18    19    1
@<TRIPOS>MOLECULE
*****
 35 40 0 0 0
SMALL
GASTEIGER

@<TRIPOS>ATOM
      1 N         141.8654  145.4807  159.8811 N.am    1  UNL1       -0.2497
      2 C         141.6731  144.1938  160.6275 C.2     1  UNL1        0.3248
      3 O         141.0340  143.0201  159.9463 O.2     1  UNL1       -0.2488
      4 N         142.1200  144.0807  162.0549 N.ar    1  UNL1       -0.2609
      5 C         142.7710  145.1635  162.8634 C.ar    1  UNL1        0.0842
      6 C         143.0476  144.6170  164.2326 C.ar    1  UNL1        0.0207
      7 C         142.5676  143.1964  164.2703 C.ar    1  UNL1        0.0208
      8 C         142.5785  142.1617  165.3563 C.ar    1  UNL1        0.0390
      9 C         142.0161  140.7957  165.0964 C.ar    1  UNL1        0.1473
     10 C         141.4427  140.4643  163.7504 C.ar    1  UNL1        0.0390
     11 C         141.4319  141.4989  162.6645 C.ar    1  UNL1        0.0208
     12 C         141.9943  142.8649  162.9244 C.ar    1  UNL1        0.0683
     13 H         142.2848  146.2510  160.3281 H       1  UNL1        0.1581
     14 C         140.0168  145.6964  156.4751 C.ar    1  UNL1        0.0537
     15 C         140.0005  145.5445  157.9672 C.ar    1  UNL1        0.0502
     16 C         141.4185  145.5938  158.4537 C.ar    1  UNL1        0.1561
     17 N         142.3112  145.7762  157.2621 N.ar    1  UNL1       -0.1577
     18 N         141.4449  145.8396  156.0393 N.ar    1  UNL1       -0.2786
     19 H         141.7585  145.9549  155.1132 H       1  UNL1        0.1886
     20 C         138.8704  147.1182  155.0801 C.3     1  UNL1        0.0059
     21 C         138.8157  145.7037  155.5764 C.3     1  UNL1        0.0349
     22 C         137.5957  145.2197  154.8502 C.3     1  UNL1        0.0059
     23 C         138.3440  144.2918  155.7607 C.3     1  UNL1        0.0059
     24 O         142.0270  139.7610  166.1824 O.3     1  UNL1       -0.4363
     25 C         140.9577  139.7666  167.2343 C.ar    1  UNL1        0.2282
     26 N         139.5353  139.4732  166.8595 N.ar    1  UNL1       -0.1893
     27 C         138.4660  139.4787  167.9114 C.ar    1  UNL1        0.2012
     28 N         138.8191  139.7777  169.3382 N.ar    1  UNL1       -0.2271
     29 C         140.2416  140.0711  169.7132 C.ar    1  UNL1        0.0772
     30 C         141.3109  140.0655  168.6612 C.ar    1  UNL1        0.0477
     31 C         142.7333  140.3589  169.0361 C.3     1  UNL1        0.0494
     32 C         143.0865  140.6579  170.4629 C.3     1  UNL1        0.0738
     33 N         142.0172  140.6634  171.5149 N.3     1  UNL1       -0.2922
     34 C         140.5947  140.3700  171.1400 C.3     1  UNL1        0.1150
     35 H         142.0248  141.5917  171.9376 H       1  UNL1        0.1236
@<TRIPOS>BOND
     1    20    21    1
     2    21    14    1
     3    14    15   ar
     4    15    16   ar
     5    16     1    1
     6     1     2   am
     7     2     3    2
     8     2     4   am
     9     4     5   ar
    10     5     6   ar
    11     6     7   ar
    12     7     8   ar
    13     8     9   ar
    14     9    24    1
    15    24    25    1
    16    25    26   ar
    17    26    27   ar
    18    27    28   ar
    19    28    29   ar
    20    29    30   ar
    21    30    31    1
    22    31    32    1
    23    32    33    1
    24    33    34    1
    25     9    10   ar
    26    10    11   ar
    27    11    12   ar
    28    16    17   ar
    29    17    18   ar
    30    21    22    1
    31    22    23    1
    32    23    21    1
    33    18    14   ar
    34    12     4   ar
    35    12     7   ar
    36    30    25   ar
    37    34    29    1
    38     1    13    1
    39    33    35    1
    40    18    19    1
@<TRIPOS>MOLECULE
*****
 35 40 0 0 0
SMALL
GASTEIGER

@<TRIPOS>ATOM
      1 N         138.5963  139.5881  164.0277 N.am    1  UNL1       -0.2497
      2 C         139.7240  139.0258  163.2140 C.2     1  UNL1        0.3248
      3 O         140.8830  138.3618  163.8966 O.2     1  UNL1       -0.2488
      4 N         139.6927  139.1275  161.7178 N.ar    1  UNL1       -0.2609
      5 C         138.6063  139.7601  160.8996 C.ar    1  UNL1        0.0842
      6 C         138.9845  139.6381  159.4532 C.ar    1  UNL1        0.0207
      7 C         140.3047  138.9301  159.3775 C.ar    1  UNL1        0.0208
      8 C         141.1649  138.5319  158.2149 C.ar    1  UNL1        0.0390
      9 C         142.4628  137.8183  158.4519 C.ar    1  UNL1        0.1473
     10 C         142.9005  137.5027  159.8516 C.ar    1  UNL1        0.0390
     11 C         142.0403  137.9009  161.0141 C.ar    1  UNL1        0.0208
     12 C         140.7424  138.6145  160.7771 C.ar    1  UNL1        0.0683
     13 H         137.8356  140.0239  163.5797 H       1  UNL1        0.1581
     14 C         139.2819  139.7710  167.8436 C.ar    1  UNL1        0.0537
     15 C         139.6269  140.1403  166.4314 C.ar    1  UNL1        0.0502
     16 C         138.6275  139.4864  165.5239 C.ar    1  UNL1        0.1561
     17 N         137.6647  138.7129  166.3754 N.ar    1  UNL1       -0.1577
     18 N         138.0692  138.8888  167.8091 N.ar    1  UNL1       -0.2786
     19 H         137.6180  138.4946  168.5902 H       1  UNL1        0.1886
     20 C         141.4332  140.0939  168.5846 C.3     1  UNL1        0.0059
     21 C         140.0200  140.2073  169.0745 C.3     1  UNL1        0.0349
     22 C         140.2673  140.6830  170.4755 C.3     1  UNL1        0.0059
     23 C         138.8631  140.4722  169.9918 C.3     1  UNL1        0.0059
     24 O         143.3229  137.4201  157.2894 O.3     1  UNL1       -0.4363
     25 C         143.0846  136.1132  156.5929 C.ar    1  UNL1        0.2282
     26 N         143.2873  134.8226  157.3299 N.ar    1  UNL1       -0.1893
     27 C         143.0489  133.5157  156.6334 C.ar    1  UNL1        0.2012
     28 N         142.6078  133.4993  155.1999 N.ar    1  UNL1       -0.2271
     29 C         142.4050  134.7900  154.4627 C.ar    1  UNL1        0.0772
     30 C         142.6434  136.0969  155.1593 C.ar    1  UNL1        0.0477
     31 C         142.4407  137.3875  154.4222 C.3     1  UNL1        0.0494
     32 C         141.9996  137.3711  152.9887 C.3     1  UNL1        0.0738
     33 N         141.7612  136.0642  152.2922 N.3     1  UNL1       -0.2922
     34 C         141.9639  134.7736  153.0292 C.3     1  UNL1        0.1150
     35 H         142.3840  136.0430  151.4846 H       1  UNL1        0.1236
@<TRIPOS>BOND
     1    20    21    1
     2    21    14    1
     3    14    15   ar
     4    15    16   ar
     5    16     1    1
     6     1     2   am
     7     2     3    2
     8     2     4   am
     9     4     5   ar
    10     5     6   ar
    11     6     7   ar
    12     7     8   ar
    13     8     9   ar
    14     9    24    1
    15    24    25    1
    16    25    26   ar
    17    26    27   ar
    18    27    28   ar
    19    28    29   ar
    20    29    30   ar
    21    30    31    1
    22    31    32    1
    23    32    33    1
    24    33    34    1
    25     9    10   ar
    26    10    11   ar
    27    11    12   ar
    28    16    17   ar
    29    17    18   ar
    30    21    22    1
    31    22    23    1
    32    23    21    1
    33    18    14   ar
    34    12     4   ar
    35    12     7   ar
    36    30    25   ar
    37    34    29    1
    38     1    13    1
    39    33    35    1
    40    18    19    1
@<TRIPOS>MOLECULE
*****
 35 40 0 0 0
SMALL
GASTEIGER

@<TRIPOS>ATOM
      1 N         138.5260  139.5334  163.9492 N.am    1  UNL1       -0.2497
      2 C         139.6837  139.0310  163.1383 C.2     1  UNL1        0.3248
      3 O         140.8843  138.4504  163.8249 O.2     1  UNL1       -0.2488
      4 N         139.6406  139.1092  161.6410 N.ar    1  UNL1       -0.2609
      5 C         138.5138  139.6610  160.8190 C.ar    1  UNL1        0.0842
      6 C         138.8936  139.5421  159.3727 C.ar    1  UNL1        0.0207
      7 C         140.2551  138.9169  159.3010 C.ar    1  UNL1        0.0208
      8 C         141.1342  138.5566  158.1402 C.ar    1  UNL1        0.0390
      9 C         142.4750  137.9287  158.3813 C.ar    1  UNL1        0.1473
     10 C         142.9367  137.6611  159.7832 C.ar    1  UNL1        0.0390
     11 C         142.0576  138.0214  160.9439 C.ar    1  UNL1        0.0208
     12 C         140.7168  138.6493  160.7028 C.ar    1  UNL1        0.0683
     13 H         137.7380  139.9145  163.4986 H       1  UNL1        0.1581
     14 C         139.2031  139.8249  167.7599 C.ar    1  UNL1        0.0537
     15 C         139.5131  140.2019  166.3416 C.ar    1  UNL1        0.0502
     16 C         138.5690  139.4553  165.4465 C.ar    1  UNL1        0.1561
     17 N         137.6755  138.6168  166.3118 N.ar    1  UNL1       -0.1577
     18 N         138.0674  138.8452  167.7415 N.ar    1  UNL1       -0.2786
     19 H         137.6521  138.4258  168.5294 H       1  UNL1        0.1886
     20 C         141.2679  140.5964  168.4103 C.3     1  UNL1        0.0059
     21 C         139.9056  140.3376  168.9822 C.3     1  UNL1        0.0349
     22 C         140.1348  140.7603  170.4031 C.3     1  UNL1        0.0059
     23 C         138.7871  140.2567  169.9785 C.3     1  UNL1        0.0059
     24 O         143.3541  137.5684  157.2205 O.3     1  UNL1       -0.4363
     25 C         142.7810  136.8327  156.0456 C.ar    1  UNL1        0.2282
     26 N         142.2498  137.5964  154.8690 N.ar    1  UNL1       -0.1893
     27 C         141.6767  136.8608  153.6941 C.ar    1  UNL1        0.2012
     28 N         141.6348  135.3614  153.6959 N.ar    1  UNL1       -0.2271
     29 C         142.1659  134.5976  154.8726 C.ar    1  UNL1        0.0772
     30 C         142.7390  135.3333  156.0474 C.ar    1  UNL1        0.0477
     31 C         143.2702  134.5695  157.2241 C.3     1  UNL1        0.0494
     32 C         143.2283  133.0702  157.2259 C.3     1  UNL1        0.0738
     33 N         142.6552  132.3345  156.0510 N.3     1  UNL1       -0.2922
     34 C         142.1240  133.0982  154.8743 C.3     1  UNL1        0.1150
     35 H         141.8852  131.7673  156.4058 H       1  UNL1        0.1236
@<TRIPOS>BOND
     1    20    21    1
     2    21    14    1
     3    14    15   ar
     4    15    16   ar
     5    16     1    1
     6     1     2   am
     7     2     3    2
     8     2     4   am
     9     4     5   ar
    10     5     6   ar
    11     6     7   ar
    12     7     8   ar
    13     8     9   ar
    14     9    24    1
    15    24    25    1
    16    25    26   ar
    17    26    27   ar
    18    27    28   ar
    19    28    29   ar
    20    29    30   ar
    21    30    31    1
    22    31    32    1
    23    32    33    1
    24    33    34    1
    25     9    10   ar
    26    10    11   ar
    27    11    12   ar
    28    16    17   ar
    29    17    18   ar
    30    21    22    1
    31    22    23    1
    32    23    21    1
    33    18    14   ar
    34    12     4   ar
    35    12     7   ar
    36    30    25   ar
    37    34    29    1
    38     1    13    1
    39    33    35    1
    40    18    19    1
@<TRIPOS>MOLECULE
*****
 35 40 0 0 0
SMALL
GASTEIGER

@<TRIPOS>ATOM
      1 N         143.0881  138.9557  157.8595 N.am    1  UNL1       -0.2497
      2 C         143.1236  138.6751  159.3325 C.2     1  UNL1        0.3248
      3 O         143.3527  137.2766  159.8243 O.2     1  UNL1       -0.2488
      4 N         142.9300  139.7930  160.3138 N.ar    1  UNL1       -0.2609
      5 C         142.6926  141.2343  159.9728 C.ar    1  UNL1        0.0842
      6 C         142.5556  141.9979  161.2566 C.ar    1  UNL1        0.0207
      7 C         142.7084  141.0285  162.3910 C.ar    1  UNL1        0.0208
      8 C         142.6668  141.2106  163.8794 C.ar    1  UNL1        0.0390
      9 C         142.8565  140.0300  164.7850 C.ar    1  UNL1        0.1473
     10 C         143.0878  138.6673  164.2023 C.ar    1  UNL1        0.0390
     11 C         143.1295  138.4852  162.7140 C.ar    1  UNL1        0.0208
     12 C         142.9398  139.6658  161.8083 C.ar    1  UNL1        0.0683
     13 H         142.9377  139.8735  157.5367 H       1  UNL1        0.1581
     14 C         142.9773  135.7685  155.6470 C.ar    1  UNL1        0.0537
     15 C         142.4209  136.6158  156.7526 C.ar    1  UNL1        0.0502
     16 C         143.2817  137.8379  156.8782 C.ar    1  UNL1        0.1561
     17 N         144.3700  137.7457  155.8500 N.ar    1  UNL1       -0.1577
     18 N         144.1819  136.4668  155.0891 N.ar    1  UNL1       -0.2786
     19 H         144.7493  136.1426  154.3528 H       1  UNL1        0.1886
     20 C         142.0856  134.8019  153.7623 C.3     1  UNL1        0.0059
     21 C         142.4257  134.4536  155.1811 C.3     1  UNL1        0.0349
     22 C         141.9924  133.0178  155.2080 C.3     1  UNL1        0.0059
     23 C         142.5743  133.6487  156.4381 C.3     1  UNL1        0.0059
     24 O         142.8148  140.2121  166.2733 O.3     1  UNL1       -0.4363
     25 C         141.5259  140.0211  167.0165 C.ar    1  UNL1        0.2282
     26 N         140.2777  139.6526  166.2708 N.ar    1  UNL1       -0.1893
     27 C         138.9888  139.4616  167.0140 C.ar    1  UNL1        0.2012
     28 N         138.9482  139.6392  168.5029 N.ar    1  UNL1       -0.2271
     29 C         140.1965  140.0077  169.2486 C.ar    1  UNL1        0.0772
     30 C         141.4853  140.1987  168.5054 C.ar    1  UNL1        0.0477
     31 C         142.7335  140.5672  169.2511 C.3     1  UNL1        0.0494
     32 C         142.6929  140.7448  170.7400 C.3     1  UNL1        0.0738
     33 N         141.4040  140.5538  171.4832 N.3     1  UNL1       -0.2922
     34 C         140.1558  140.1853  170.7375 C.3     1  UNL1        0.1150
     35 H         141.2101  141.4308  171.9666 H       1  UNL1        0.1236
@<TRIPOS>BOND
     1    20    21    1
     2    21    14    1
     3    14    15   ar
     4    15    16   ar
     5    16     1    1
     6     1     2   am
     7     2     3    2
     8     2     4   am
     9     4     5   ar
    10     5     6   ar
    11     6     7   ar
    12     7     8   ar
    13     8     9   ar
    14     9    24    1
    15    24    25    1
    16    25    26   ar
    17    26    27   ar
    18    27    28   ar
    19    28    29   ar
    20    29    30   ar
    21    30    31    1
    22    31    32    1
    23    32    33    1
    24    33    34    1
    25     9    10   ar
    26    10    11   ar
    27    11    12   ar
    28    16    17   ar
    29    17    18   ar
    30    21    22    1
    31    22    23    1
    32    23    21    1
    33    18    14   ar
    34    12     4   ar
    35    12     7   ar
    36    30    25   ar
    37    34    29    1
    38     1    13    1
    39    33    35    1
    40    18    19    1
@<TRIPOS>MOLECULE
*****
 35 40 0 0 0
SMALL
GASTEIGER

@<TRIPOS>ATOM
      1 N         141.8523  145.4864  159.6692 N.am    1  UNL1       -0.2497
      2 C         141.0998  144.5621  160.5799 C.2     1  UNL1        0.3248
      3 O         139.8479  143.8902  160.0988 O.2     1  UNL1       -0.2488
      4 N         141.5993  144.3097  161.9716 N.ar    1  UNL1       -0.2609
      5 C         142.8290  144.9069  162.5889 C.ar    1  UNL1        0.0842
      6 C         142.9464  144.3820  163.9892 C.ar    1  UNL1        0.0207
      7 C         141.7891  143.4605  164.2372 C.ar    1  UNL1        0.0208
      8 C         141.3860  142.6562  165.4376 C.ar    1  UNL1        0.0390
      9 C         140.1502  141.8073  165.3909 C.ar    1  UNL1        0.1473
     10 C         139.3176  141.7626  164.1439 C.ar    1  UNL1        0.0390
     11 C         139.7208  142.5668  162.9437 C.ar    1  UNL1        0.0208
     12 C         140.9566  143.4158  162.9903 C.ar    1  UNL1        0.0683
     13 H         142.6739  145.9274  159.9849 H       1  UNL1        0.1581
     14 C         141.2317  145.8705  155.8570 C.ar    1  UNL1        0.0537
     15 C         142.1065  145.4717  157.0083 C.ar    1  UNL1        0.0502
     16 C         141.3529  145.7388  158.2775 C.ar    1  UNL1        0.1561
     17 N         140.0122  146.3027  157.9104 N.ar    1  UNL1       -0.1577
     18 N         139.9374  146.3841  156.4145 N.ar    1  UNL1       -0.2786
     19 H         139.1729  146.7163  155.8906 H       1  UNL1        0.1886
     20 C         142.7467  144.8228  154.4827 C.3     1  UNL1        0.0059
     21 C         141.5886  145.7728  154.4033 C.3     1  UNL1        0.0349
     22 C         141.5433  146.0052  152.9221 C.3     1  UNL1        0.0059
     23 C         140.5545  146.6890  153.8191 C.3     1  UNL1        0.0059
     24 O         139.7470  141.0030  166.5911 O.3     1  UNL1       -0.4363
     25 C         140.7879  140.5349  167.5644 C.ar    1  UNL1        0.2282
     26 N         141.8221  139.5371  167.1343 N.ar    1  UNL1       -0.1893
     27 C         142.8630  139.0689  168.1076 C.ar    1  UNL1        0.2012
     28 N         142.8698  139.5985  169.5110 N.ar    1  UNL1       -0.2271
     29 C         141.8356  140.5962  169.9411 C.ar    1  UNL1        0.0772
     30 C         140.7947  141.0644  168.9679 C.ar    1  UNL1        0.0477
     31 C         139.7605  142.0622  169.3979 C.3     1  UNL1        0.0494
     32 C         139.7673  142.5917  170.8013 C.3     1  UNL1        0.0738
     33 N         140.8082  142.1235  171.7746 N.3     1  UNL1       -0.2922
     34 C         141.8424  141.1258  171.3445 C.3     1  UNL1        0.1150
     35 H         140.3097  141.7098  172.5625 H       1  UNL1        0.1236
@<TRIPOS>BOND
     1    20    21    1
     2    21    14    1
     3    14    15   ar
     4    15    16   ar
     5    16     1    1
     6     1     2   am
     7     2     3    2
     8     2     4   am
     9     4     5   ar
    10     5     6   ar
    11     6     7   ar
    12     7     8   ar
    13     8     9   ar
    14     9    24    1
    15    24    25    1
    16    25    26   ar
    17    26    27   ar
    18    27    28   ar
    19    28    29   ar
    20    29    30   ar
    21    30    31    1
    22    31    32    1
    23    32    33    1
    24    33    34    1
    25     9    10   ar
    26    10    11   ar
    27    11    12   ar
    28    16    17   ar
    29    17    18   ar
    30    21    22    1
    31    22    23    1
    32    23    21    1
    33    18    14   ar
    34    12     4   ar
    35    12     7   ar
    36    30    25   ar
    37    34    29    1
    38     1    13    1
    39    33    35    1
    40    18    19    1
@<TRIPOS>MOLECULE
*****
 35 40 0 0 0
SMALL
GASTEIGER

@<TRIPOS>ATOM
      1 N         141.6145  138.5750  158.2293 N.am    1  UNL1       -0.2497
      2 C         141.7925  138.3598  159.7031 C.2     1  UNL1        0.3248
      3 O         142.7292  137.2980  160.1982 O.2     1  UNL1       -0.2488
      4 N         141.0338  139.2064  160.6817 N.ar    1  UNL1       -0.2609
      5 C         140.0672  140.3004  160.3373 C.ar    1  UNL1        0.0842
      6 C         139.5445  140.8777  161.6193 C.ar    1  UNL1        0.0207
      7 C         140.1880  140.1404  162.7560 C.ar    1  UNL1        0.0208
      8 C         140.0548  140.2762  164.2439 C.ar    1  UNL1        0.0390
      9 C         140.8421  139.3790  165.1524 C.ar    1  UNL1        0.1473
     10 C         141.7626  138.3460  164.5728 C.ar    1  UNL1        0.0390
     11 C         141.8957  138.2102  163.0850 C.ar    1  UNL1        0.0208
     12 C         141.1085  139.1074  162.1765 C.ar    1  UNL1        0.0683
     13 H         140.9997  139.2719  157.9044 H       1  UNL1        0.1581
     14 C         142.9672  135.9432  155.7176 C.ar    1  UNL1        0.0537
     15 C         141.8913  136.4500  156.6316 C.ar    1  UNL1        0.0502
     16 C         142.3732  137.7285  157.2507 C.ar    1  UNL1        0.1561
     17 N         143.7470  138.0118  156.7191 N.ar    1  UNL1       -0.1577
     18 N         144.1141  136.9084  155.7717 N.ar    1  UNL1       -0.2786
     19 H         144.9593  136.8313  155.2729 H       1  UNL1        0.1886
     20 C         142.2214  135.2181  153.6683 C.3     1  UNL1        0.0059
     21 C         142.9067  134.6909  154.8940 C.3     1  UNL1        0.0349
     22 C         143.0843  133.2555  154.4962 C.3     1  UNL1        0.0059
     23 C         143.5711  133.7289  155.8338 C.3     1  UNL1        0.0059
     24 O         140.7089  139.5147  166.6402 O.3     1  UNL1       -0.4363
     25 C         141.5261  140.5346  167.3764 C.ar    1  UNL1        0.2282
     26 N         142.5261  141.3715  166.6352 N.ar    1  UNL1       -0.1893
     27 C         143.3432  142.3914  167.3714 C.ar    1  UNL1        0.2012
     28 N         143.1604  142.5745  168.8489 N.ar    1  UNL1       -0.2271
     29 C         142.1603  141.7376  169.5902 C.ar    1  UNL1        0.0772
     30 C         141.3431  140.7176  168.8540 C.ar    1  UNL1        0.0477
     31 C         140.3431  139.8808  169.5953 C.3     1  UNL1        0.0494
     32 C         140.1603  140.0638  171.0728 C.3     1  UNL1        0.0738
     33 N         140.9774  141.0837  171.8090 N.3     1  UNL1       -0.2922
     34 C         141.9774  141.9206  171.0677 C.3     1  UNL1        0.1150
     35 H         141.4921  140.5820  172.5327 H       1  UNL1        0.1236
@<TRIPOS>BOND
     1    20    21    1
     2    21    14    1
     3    14    15   ar
     4    15    16   ar
     5    16     1    1
     6     1     2   am
     7     2     3    2
     8     2     4   am
     9     4     5   ar
    10     5     6   ar
    11     6     7   ar
    12     7     8   ar
    13     8     9   ar
    14     9    24    1
    15    24    25    1
    16    25    26   ar
    17    26    27   ar
    18    27    28   ar
    19    28    29   ar
    20    29    30   ar
    21    30    31    1
    22    31    32    1
    23    32    33    1
    24    33    34    1
    25     9    10   ar
    26    10    11   ar
    27    11    12   ar
    28    16    17   ar
    29    17    18   ar
    30    21    22    1
    31    22    23    1
    32    23    21    1
    33    18    14   ar
    34    12     4   ar
    35    12     7   ar
    36    30    25   ar
    37    34    29    1
    38     1    13    1
    39    33    35    1
    40    18    19    1
@<TRIPOS>MOLECULE
*****
 35 40 0 0 0
SMALL
GASTEIGER

@<TRIPOS>ATOM
      1 N         140.4279  144.4182  157.2873 N.am    1  UNL1       -0.2497
      2 C         140.5259  144.6109  158.7716 C.2     1  UNL1        0.3248
      3 O         139.9199  145.8245  159.4119 O.2     1  UNL1       -0.2488
      4 N         141.2300  143.5901  159.6155 N.ar    1  UNL1       -0.2609
      5 C         141.8810  142.3332  159.1192 C.ar    1  UNL1        0.0842
      6 C         142.4600  141.6132  160.3009 C.ar    1  UNL1        0.0207
      7 C         142.1667  142.4252  161.5276 C.ar    1  UNL1        0.0208
      8 C         142.4937  142.2098  162.9756 C.ar    1  UNL1        0.0390
      9 C         142.0604  143.2162  164.0000 C.ar    1  UNL1        0.1473
     10 C         141.3002  144.4380  163.5764 C.ar    1  UNL1        0.0390
     11 C         140.9733  144.6533  162.1284 C.ar    1  UNL1        0.0208
     12 C         141.4065  143.6469  161.1040 C.ar    1  UNL1        0.0683
     13 H         140.8256  143.6217  156.8670 H       1  UNL1        0.1581
     14 C         139.1939  147.4990  155.2747 C.ar    1  UNL1        0.0537
     15 C         140.2053  146.8306  156.1579 C.ar    1  UNL1        0.0502
     16 C         139.7239  145.4389  156.4433 C.ar    1  UNL1        0.1561
     17 N         138.4148  145.2473  155.7363 N.ar    1  UNL1       -0.1577
     18 N         138.0873  146.5205  155.0142 N.ar    1  UNL1       -0.2786
     19 H         137.2866  146.6851  154.4655 H       1  UNL1        0.1886
     20 C         138.5361  149.6307  155.8269 C.3     1  UNL1        0.0059
     21 C         139.2748  148.9002  154.7451 C.3     1  UNL1        0.0349
     22 C         139.6124  150.0475  153.8396 C.3     1  UNL1        0.0059
     23 C         140.0418  148.6561  153.4792 C.3     1  UNL1        0.0059
     24 O         142.3874  143.0009  165.4480 O.3     1  UNL1       -0.4363
     25 C         141.5387  142.0862  166.2806 C.ar    1  UNL1        0.2282
     26 N         140.2923  141.4855  165.7014 N.ar    1  UNL1       -0.1893
     27 C         139.4436  140.5709  166.5339 C.ar    1  UNL1        0.2012
     28 N         139.8414  140.2568  167.9457 N.ar    1  UNL1       -0.2271
     29 C         141.0879  140.8575  168.5250 C.ar    1  UNL1        0.0772
     30 C         141.9366  141.7722  167.6924 C.ar    1  UNL1        0.0477
     31 C         143.1830  142.3729  168.2716 C.3     1  UNL1        0.0494
     32 C         143.5808  142.0589  169.6834 C.3     1  UNL1        0.0738
     33 N         142.7322  141.1442  170.5159 N.3     1  UNL1       -0.2922
     34 C         141.4857  140.5435  169.9367 C.3     1  UNL1        0.1150
     35 H         142.4482  141.6745  171.3396 H       1  UNL1        0.1236
@<TRIPOS>BOND
     1    20    21    1
     2    21    14    1
     3    14    15   ar
     4    15    16   ar
     5    16     1    1
     6     1     2   am
     7     2     3    2
     8     2     4   am
     9     4     5   ar
    10     5     6   ar
    11     6     7   ar
    12     7     8   ar
    13     8     9   ar
    14     9    24    1
    15    24    25    1
    16    25    26   ar
    17    26    27   ar
    18    27    28   ar
    19    28    29   ar
    20    29    30   ar
    21    30    31    1
    22    31    32    1
    23    32    33    1
    24    33    34    1
    25     9    10   ar
    26    10    11   ar
    27    11    12   ar
    28    16    17   ar
    29    17    18   ar
    30    21    22    1
    31    22    23    1
    32    23    21    1
    33    18    14   ar
    34    12     4   ar
    35    12     7   ar
    36    30    25   ar
    37    34    29    1
    38     1    13    1
    39    33    35    1
    40    18    19    1
@<TRIPOS>MOLECULE
*****
 35 40 0 0 0
SMALL
GASTEIGER

@<TRIPOS>ATOM
      1 N         138.6282  141.1956  158.3064 N.am    1  UNL1       -0.2497
      2 C         139.6771  140.1362  158.1406 C.2     1  UNL1        0.3248
      3 O         140.7361  139.9589  159.1880 O.2     1  UNL1       -0.2488
      4 N         139.6669  139.2541  156.9274 N.ar    1  UNL1       -0.2609
      5 C         138.6764  139.3133  155.8025 C.ar    1  UNL1        0.0842
      6 C         139.0429  138.2538  154.8060 C.ar    1  UNL1        0.0207
      7 C         140.2599  137.5398  155.3150 C.ar    1  UNL1        0.0208
      8 C         141.0667  136.4065  154.7540 C.ar    1  UNL1        0.0390
      9 C         142.2592  135.8915  155.5041 C.ar    1  UNL1        0.1473
     10 C         142.6449  136.5098  156.8152 C.ar    1  UNL1        0.0390
     11 C         141.8381  137.6430  157.3762 C.ar    1  UNL1        0.0208
     12 C         140.6456  138.1580  156.6261 C.ar    1  UNL1        0.0683
     13 H         137.9331  141.3119  157.6189 H       1  UNL1        0.1581
     14 C         138.3139  142.8956  161.7815 C.ar    1  UNL1        0.0537
     15 C         138.0943  141.7233  160.8718 C.ar    1  UNL1        0.0502
     16 C         138.6382  142.0777  159.5195 C.ar    1  UNL1        0.1561
     17 N         139.1939  143.4690  159.5935 N.ar    1  UNL1       -0.1577
     18 N         138.9935  143.9745  160.9915 N.ar    1  UNL1       -0.2786
     19 H         139.2610  144.8590  161.3309 H       1  UNL1        0.1886
     20 C         137.3637  141.5966  163.4221 C.3     1  UNL1        0.0059
     21 C         137.9225  142.9750  163.2274 C.3     1  UNL1        0.0349
     22 C         137.7252  143.5332  164.6057 C.3     1  UNL1        0.0059
     23 C         138.3454  144.3809  163.5348 C.3     1  UNL1        0.0059
     24 O         143.0660  134.7582  154.9431 O.3     1  UNL1       -0.4363
     25 C         142.6477  133.3407  155.1994 C.ar    1  UNL1        0.2282
     26 N         141.5097  132.7431  154.4263 N.ar    1  UNL1       -0.1893
     27 C         141.0913  131.3256  154.6826 C.ar    1  UNL1        0.2012
     28 N         141.8109  130.5058  155.7122 N.ar    1  UNL1       -0.2271
     29 C         142.9489  131.1034  156.4854 C.ar    1  UNL1        0.0772
     30 C         143.3673  132.5209  156.2291 C.ar    1  UNL1        0.0477
     31 C         144.5053  133.1185  157.0023 C.3     1  UNL1        0.0494
     32 C         145.2248  132.2986  158.0318 C.3     1  UNL1        0.0738
     33 N         144.8064  130.8812  158.2882 N.3     1  UNL1       -0.2922
     34 C         143.6685  130.2835  157.5150 C.3     1  UNL1        0.1150
     35 H         144.5550  130.8222  159.2749 H       1  UNL1        0.1236
@<TRIPOS>BOND
     1    20    21    1
     2    21    14    1
     3    14    15   ar
     4    15    16   ar
     5    16     1    1
     6     1     2   am
     7     2     3    2
     8     2     4   am
     9     4     5   ar
    10     5     6   ar
    11     6     7   ar
    12     7     8   ar
    13     8     9   ar
    14     9    24    1
    15    24    25    1
    16    25    26   ar
    17    26    27   ar
    18    27    28   ar
    19    28    29   ar
    20    29    30   ar
    21    30    31    1
    22    31    32    1
    23    32    33    1
    24    33    34    1
    25     9    10   ar
    26    10    11   ar
    27    11    12   ar
    28    16    17   ar
    29    17    18   ar
    30    21    22    1
    31    22    23    1
    32    23    21    1
    33    18    14   ar
    34    12     4   ar
    35    12     7   ar
    36    30    25   ar
    37    34    29    1
    38     1    13    1
    39    33    35    1
    40    18    19    1
