@<TRIPOS>MOLECULE
*****
 29 33 0 0 0
SMALL
GASTEIGER

@<TRIPOS>ATOM
      1 C         140.8326  145.0824  161.0288 C.3     1  UNL1        0.0294
      2 C         140.2009  144.4016  159.8508 C.3     1  UNL1        0.0666
      3 S         139.9142  142.9301  159.8999 S.3     1  UNL1       -0.0756
      4 C         138.4565  141.0320  162.9558 C.ar    1  UNL1        0.2029
      5 N         137.3095  141.9300  162.5981 N.ar    1  UNL1       -0.1250
      6 N         137.7159  142.7503  161.4099 N.ar    1  UNL1       -0.1220
      7 C         139.1142  142.3593  161.0331 C.ar    1  UNL1        0.1933
      8 N         139.5720  141.2974  161.9885 N.ar    1  UNL1       -0.2860
      9 C         140.9101  140.6198  161.9784 C.3     1  UNL1        0.1341
     10 C         138.7958  137.7996  162.6626 C.3     1  UNL1        0.0556
     11 C         138.6394  138.5567  163.9480 C.ar    1  UNL1        0.1001
     12 N         138.6115  137.9610  165.3243 N.ar    1  UNL1       -0.2085
     13 C         138.4384  139.0786  166.3098 C.ar    1  UNL1        0.2849
     14 O         138.3593  140.3650  165.5424 O.2     1  UNL1       -0.4283
     15 C         138.4835  140.0425  164.0828 C.ar    1  UNL1        0.1964
     16 C         139.9764  145.5810  162.1549 C.3     1  UNL1        0.0730
     17 N         139.9546  144.8464  163.4626 N.3     1  UNL1       -0.2726
     18 C         138.8991  144.9631  164.5219 C.3     1  UNL1        0.0721
     19 C         139.2766  144.0549  165.6544 C.3     1  UNL1        0.0190
     20 C         140.5655  143.3769  165.2950 C.3     1  UNL1        0.0201
     21 C         140.6785  142.5754  166.5579 C.3     1  UNL1        0.0061
     22 C         141.7341  142.4587  165.4986 C.3     1  UNL1        0.0237
     23 C         140.9845  143.8661  163.9404 C.3     1  UNL1        0.0724
     24 C         143.0181  141.8613  165.0045 C.ar    1  UNL1       -0.0225
     25 C         144.1543  142.7537  164.6011 C.ar    1  UNL1       -0.0043
     26 C         145.4384  142.1563  164.1070 C.ar    1  UNL1       -0.0003
     27 C         145.5863  140.6663  164.0162 C.ar    1  UNL1       -0.0000
     28 C         144.4501  139.7739  164.4196 C.ar    1  UNL1       -0.0003
     29 C         143.1660  140.3714  164.9137 C.ar    1  UNL1       -0.0043
@<TRIPOS>BOND
     1    10    11    1
     2    11    12   ar
     3    12    13   ar
     4    13    14   ar
     5    14    15   ar
     6    15     4    1
     7     4     5   ar
     8     5     6   ar
     9     6     7   ar
    10     7     3    1
    11     3     2    1
    12     2     1    1
    13     1    16    1
    14    16    17    1
    15    17    18    1
    16    18    19    1
    17    20    19    1
    18    20    21    1
    19    21    22    1
    20    22    24    1
    21    24    25   ar
    22    25    26   ar
    23    26    27   ar
    24    27    28   ar
    25    28    29   ar
    26    20    23    1
    27     7     8   ar
    28     8     9    1
    29    15    11   ar
    30     8     4   ar
    31    23    17    1
    32    22    20    1
    33    29    24   ar
@<TRIPOS>MOLECULE
*****
 29 33 0 0 0
SMALL
GASTEIGER

@<TRIPOS>ATOM
      1 C         144.7593  139.5929  163.7346 C.3     1  UNL1        0.0294
      2 C         145.3755  140.9413  163.9631 C.3     1  UNL1        0.0666
      3 S         145.0568  142.0780  163.0377 S.3     1  UNL1       -0.0756
      4 C         141.5732  143.7536  163.3880 C.ar    1  UNL1        0.2029
      5 N         142.4593  144.7951  164.0049 N.ar    1  UNL1       -0.1250
      6 N         143.8720  144.2941  163.9487 N.ar    1  UNL1       -0.1220
      7 C         143.8592  142.9431  163.2972 C.ar    1  UNL1        0.1933
      8 N         142.4385  142.6090  162.9506 N.ar    1  UNL1       -0.2860
      9 C         141.9660  141.3512  162.2838 C.3     1  UNL1        0.1341
     10 C         139.9373  146.1371  161.8740 C.3     1  UNL1        0.0556
     11 C         139.3317  144.9370  162.5394 C.ar    1  UNL1        0.1001
     12 N         137.8678  144.6216  162.6258 N.ar    1  UNL1       -0.2085
     13 C         137.7149  143.3312  163.3751 C.ar    1  UNL1        0.2849
     14 O         139.0844  142.8490  163.7518 O.2     1  UNL1       -0.4283
     15 C         140.0836  143.8414  163.2353 C.ar    1  UNL1        0.1964
     16 C         144.1115  138.8617  164.8729 C.3     1  UNL1        0.0730
     17 N         142.6174  138.7437  164.9351 N.3     1  UNL1       -0.2726
     18 C         141.7608  137.9055  164.0331 C.3     1  UNL1        0.0721
     19 C         140.3316  138.0871  164.4509 C.3     1  UNL1        0.0190
     20 C         140.3049  139.0375  165.6110 C.3     1  UNL1        0.0201
     21 C         138.8163  139.0196  165.7942 C.3     1  UNL1        0.0061
     22 C         139.6729  139.8579  166.6962 C.3     1  UNL1        0.0237
     23 C         141.7176  139.4434  165.9103 C.3     1  UNL1        0.0724
     24 C         139.8025  140.8154  167.8434 C.ar    1  UNL1       -0.0225
     25 C         139.3477  140.4097  169.2141 C.ar    1  UNL1       -0.0043
     26 C         139.4774  141.3673  170.3613 C.ar    1  UNL1       -0.0003
     27 C         140.0619  142.7305  170.1380 C.ar    1  UNL1       -0.0000
     28 C         140.5167  143.1362  168.7674 C.ar    1  UNL1       -0.0003
     29 C         140.3870  142.1787  167.6201 C.ar    1  UNL1       -0.0043
@<TRIPOS>BOND
     1    10    11    1
     2    11    12   ar
     3    12    13   ar
     4    13    14   ar
     5    14    15   ar
     6    15     4    1
     7     4     5   ar
     8     5     6   ar
     9     6     7   ar
    10     7     3    1
    11     3     2    1
    12     2     1    1
    13     1    16    1
    14    16    17    1
    15    17    18    1
    16    18    19    1
    17    20    19    1
    18    20    21    1
    19    21    22    1
    20    22    24    1
    21    24    25   ar
    22    25    26   ar
    23    26    27   ar
    24    27    28   ar
    25    28    29   ar
    26    20    23    1
    27     7     8   ar
    28     8     9    1
    29    15    11   ar
    30     8     4   ar
    31    23    17    1
    32    22    20    1
    33    29    24   ar
@<TRIPOS>MOLECULE
*****
 29 33 0 0 0
SMALL
GASTEIGER

@<TRIPOS>ATOM
      1 C         143.7613  139.7004  164.3655 C.3     1  UNL1        0.0294
      2 C         145.0662  140.0570  163.7173 C.3     1  UNL1        0.0666
      3 S         145.5365  141.4813  163.7122 S.3     1  UNL1       -0.0756
      4 C         142.7978  144.0319  162.6828 C.ar    1  UNL1        0.2029
      5 N         143.2434  144.5998  163.9978 N.ar    1  UNL1       -0.1250
      6 N         144.3235  143.7135  164.5434 N.ar    1  UNL1       -0.1220
      7 C         144.5455  142.5978  163.5657 C.ar    1  UNL1        0.1933
      8 N         143.6026  142.7945  162.4158 N.ar    1  UNL1       -0.2860
      9 C         143.4852  141.9094  161.2105 C.3     1  UNL1        0.1341
     10 C         139.7249  144.7047  163.5513 C.3     1  UNL1        0.0556
     11 C         140.3217  144.9106  162.1907 C.ar    1  UNL1        0.1001
     12 N         139.6110  145.4619  160.9903 N.ar    1  UNL1       -0.2085
     13 C         140.5841  145.4934  159.8493 C.ar    1  UNL1        0.2849
     14 O         141.8964  144.9615  160.3444 O.2     1  UNL1       -0.4283
     15 C         141.7342  144.6014  161.7915 C.ar    1  UNL1        0.1964
     16 C         142.7561  138.8718  163.6219 C.3     1  UNL1        0.0730
     17 N         141.4053  138.6150  164.2212 N.3     1  UNL1       -0.2726
     18 C         140.3911  137.6300  163.7199 C.3     1  UNL1        0.0721
     19 C         139.1905  137.7043  164.6160 C.3     1  UNL1        0.0190
     20 C         139.4626  138.7353  165.6711 C.3     1  UNL1        0.0201
     21 C         138.1476  138.5876  166.3774 C.3     1  UNL1        0.0061
     22 C         139.1617  139.5726  166.8787 C.3     1  UNL1        0.0237
     23 C         140.8314  139.2981  165.4271 C.3     1  UNL1        0.0724
     24 C         139.5736  140.6247  167.8653 C.ar    1  UNL1       -0.0225
     25 C         139.3536  140.4041  169.3326 C.ar    1  UNL1       -0.0043
     26 C         139.7655  141.4563  170.3192 C.ar    1  UNL1       -0.0003
     27 C         140.3973  142.7289  169.8385 C.ar    1  UNL1       -0.0000
     28 C         140.6172  142.9495  168.3712 C.ar    1  UNL1       -0.0003
     29 C         140.2054  141.8974  167.3846 C.ar    1  UNL1       -0.0043
@<TRIPOS>BOND
     1    10    11    1
     2    11    12   ar
     3    12    13   ar
     4    13    14   ar
     5    14    15   ar
     6    15     4    1
     7     4     5   ar
     8     5     6   ar
     9     6     7   ar
    10     7     3    1
    11     3     2    1
    12     2     1    1
    13     1    16    1
    14    16    17    1
    15    17    18    1
    16    18    19    1
    17    20    19    1
    18    20    21    1
    19    21    22    1
    20    22    24    1
    21    24    25   ar
    22    25    26   ar
    23    26    27   ar
    24    27    28   ar
    25    28    29   ar
    26    20    23    1
    27     7     8   ar
    28     8     9    1
    29    15    11   ar
    30     8     4   ar
    31    23    17    1
    32    22    20    1
    33    29    24   ar
@<TRIPOS>MOLECULE
*****
 29 33 0 0 0
SMALL
GASTEIGER

@<TRIPOS>ATOM
      1 C         143.5781  145.0355  163.8620 C.3     1  UNL1        0.0294
      2 C         142.0859  145.1484  163.9656 C.3     1  UNL1        0.0666
      3 S         141.2625  145.3629  162.7304 S.3     1  UNL1       -0.0756
      4 C         138.7971  142.4580  161.9895 C.ar    1  UNL1        0.2029
      5 N         137.8742  143.6397  161.9459 N.ar    1  UNL1       -0.1250
      6 N         138.6854  144.8717  162.2182 N.ar    1  UNL1       -0.1220
      7 C         140.1096  144.4514  162.4300 C.ar    1  UNL1        0.1933
      8 N         140.1787  142.9597  162.2887 N.ar    1  UNL1       -0.2860
      9 C         141.4127  142.1175  162.4230 C.3     1  UNL1        0.1341
     10 C         138.1453  140.2719  164.3232 C.3     1  UNL1        0.0556
     11 C         138.1073  140.0212  162.8447 C.ar    1  UNL1        0.1001
     12 N         137.7630  138.7217  162.1794 N.ar    1  UNL1       -0.2085
     13 C         137.8498  138.9233  160.6955 C.ar    1  UNL1        0.2849
     14 O         138.2478  140.3475  160.4438 O.2     1  UNL1       -0.4283
     15 C         138.4069  141.0260  161.7721 C.ar    1  UNL1        0.1964
     16 C         144.3363  144.1903  164.8422 C.3     1  UNL1        0.0730
     17 N         144.3020  142.6951  164.7271 N.3     1  UNL1       -0.2726
     18 C         145.0378  141.8719  163.7119 C.3     1  UNL1        0.0721
     19 C         144.7164  140.4286  163.9645 C.3     1  UNL1        0.0190
     20 C         143.7820  140.3599  165.1358 C.3     1  UNL1        0.0201
     21 C         143.6502  138.8658  165.1438 C.3     1  UNL1        0.0061
     22 C         142.9143  139.6890  166.1591 C.3     1  UNL1        0.0237
     23 C         143.5258  141.7607  165.6072 C.3     1  UNL1        0.0724
     24 C         141.9886  139.7770  167.3360 C.ar    1  UNL1       -0.0225
     25 C         140.5395  140.1040  167.1277 C.ar    1  UNL1       -0.0043
     26 C         139.6138  140.1920  168.3046 C.ar    1  UNL1       -0.0003
     27 C         140.1370  139.9530  169.6899 C.ar    1  UNL1       -0.0000
     28 C         141.5861  139.6259  169.8983 C.ar    1  UNL1       -0.0003
     29 C         142.5118  139.5379  168.7213 C.ar    1  UNL1       -0.0043
@<TRIPOS>BOND
     1    10    11    1
     2    11    12   ar
     3    12    13   ar
     4    13    14   ar
     5    14    15   ar
     6    15     4    1
     7     4     5   ar
     8     5     6   ar
     9     6     7   ar
    10     7     3    1
    11     3     2    1
    12     2     1    1
    13     1    16    1
    14    16    17    1
    15    17    18    1
    16    18    19    1
    17    20    19    1
    18    20    21    1
    19    21    22    1
    20    22    24    1
    21    24    25   ar
    22    25    26   ar
    23    26    27   ar
    24    27    28   ar
    25    28    29   ar
    26    20    23    1
    27     7     8   ar
    28     8     9    1
    29    15    11   ar
    30     8     4   ar
    31    23    17    1
    32    22    20    1
    33    29    24   ar
@<TRIPOS>MOLECULE
*****
 29 33 0 0 0
SMALL
GASTEIGER

@<TRIPOS>ATOM
      1 C         143.6643  139.1478  161.3202 C.3     1  UNL1        0.0294
      2 C         144.2592  140.1752  162.2371 C.3     1  UNL1        0.0666
      3 S         144.6309  139.8016  163.6415 S.3     1  UNL1       -0.0756
      4 C         142.8868  140.9461  166.9147 C.ar    1  UNL1        0.2029
      5 N         143.1475  142.2647  166.2488 N.ar    1  UNL1       -0.1250
      6 N         143.8325  141.9964  164.9416 N.ar    1  UNL1       -0.1220
      7 C         143.9952  140.5121  164.7996 C.ar    1  UNL1        0.1933
      8 N         143.4108  139.8629  166.0190 N.ar    1  UNL1       -0.2860
      9 C         143.3593  138.3893  166.2944 C.3     1  UNL1        0.1341
     10 C         143.8113  142.2792  169.7463 C.3     1  UNL1        0.0556
     11 C         142.6443  141.3586  169.5446 C.ar    1  UNL1        0.1001
     12 N         141.6974  140.8891  170.6089 N.ar    1  UNL1       -0.2085
     13 C         140.6872  139.9862  169.9653 C.ar    1  UNL1        0.2849
     14 O         141.0098  139.8977  168.5031 O.2     1  UNL1       -0.4283
     15 C         142.2194  140.7458  168.2431 C.ar    1  UNL1        0.1964
     16 C         142.1755  138.9794  161.2478 C.3     1  UNL1        0.0730
     17 N         141.3914  138.6947  162.4944 N.3     1  UNL1       -0.2726
     18 C         141.2512  137.3587  163.1619 C.3     1  UNL1        0.0721
     19 C         140.3829  137.5343  164.3724 C.3     1  UNL1        0.0190
     20 C         139.9866  138.9787  164.4530 C.3     1  UNL1        0.0201
     21 C         139.1653  138.8465  165.7012 C.3     1  UNL1        0.0061
     22 C         139.3055  140.1825  165.0337 C.3     1  UNL1        0.0237
     23 C         140.6098  139.6959  163.2923 C.3     1  UNL1        0.0724
     24 C         138.9933  141.6488  164.9836 C.ar    1  UNL1       -0.0225
     25 C         137.8655  142.1467  164.1291 C.ar    1  UNL1       -0.0043
     26 C         137.5532  143.6129  164.0790 C.ar    1  UNL1       -0.0003
     27 C         138.3689  144.5813  164.8833 C.ar    1  UNL1       -0.0000
     28 C         139.4968  144.0834  165.7378 C.ar    1  UNL1       -0.0003
     29 C         139.8090  142.6171  165.7879 C.ar    1  UNL1       -0.0043
@<TRIPOS>BOND
     1    10    11    1
     2    11    12   ar
     3    12    13   ar
     4    13    14   ar
     5    14    15   ar
     6    15     4    1
     7     4     5   ar
     8     5     6   ar
     9     6     7   ar
    10     7     3    1
    11     3     2    1
    12     2     1    1
    13     1    16    1
    14    16    17    1
    15    17    18    1
    16    18    19    1
    17    20    19    1
    18    20    21    1
    19    21    22    1
    20    22    24    1
    21    24    25   ar
    22    25    26   ar
    23    26    27   ar
    24    27    28   ar
    25    28    29   ar
    26    20    23    1
    27     7     8   ar
    28     8     9    1
    29    15    11   ar
    30     8     4   ar
    31    23    17    1
    32    22    20    1
    33    29    24   ar
@<TRIPOS>MOLECULE
*****
 29 33 0 0 0
SMALL
GASTEIGER

@<TRIPOS>ATOM
      1 C         143.8612  144.9675  163.8897 C.3     1  UNL1        0.0294
      2 C         142.3783  145.1631  163.7757 C.3     1  UNL1        0.0666
      3 S         141.6536  144.7031  162.5456 S.3     1  UNL1       -0.0756
      4 C         141.3875  140.8586  162.0824 C.ar    1  UNL1        0.2029
      5 N         142.2438  141.2334  160.9092 N.ar    1  UNL1       -0.1250
      6 N         142.4477  142.7191  160.9399 N.ar    1  UNL1       -0.1220
      7 C         141.7174  143.2627  162.1321 C.ar    1  UNL1        0.1933
      8 N         141.0622  142.1129  162.8382 N.ar    1  UNL1       -0.2860
      9 C         140.2281  142.2016  164.0818 C.3     1  UNL1        0.1341
     10 C         143.0658  138.1057  161.5779 C.3     1  UNL1        0.0556
     11 C         141.7073  138.2076  162.2056 C.ar    1  UNL1        0.1001
     12 N         140.8816  137.0621  162.7115 N.ar    1  UNL1       -0.2085
     13 C         139.5999  137.6194  163.2561 C.ar    1  UNL1        0.2849
     14 O         139.6334  139.1095  163.0868 O.2     1  UNL1       -0.4283
     15 C         140.9358  139.4730  162.4375 C.ar    1  UNL1        0.1964
     16 C         144.4203  144.0787  164.9609 C.3     1  UNL1        0.0730
     17 N         144.3190  142.5881  164.8273 N.3     1  UNL1       -0.2726
     18 C         144.9961  141.7483  163.7851 C.3     1  UNL1        0.0721
     19 C         144.6184  140.3168  164.0262 C.3     1  UNL1        0.0190
     20 C         143.7079  140.2719  165.2174 C.3     1  UNL1        0.0201
     21 C         143.5120  138.7848  165.2091 C.3     1  UNL1        0.0061
     22 C         142.8349  139.6246  166.2513 C.3     1  UNL1        0.0237
     23 C         143.5229  141.6757  165.7125 C.3     1  UNL1        0.0724
     24 C         141.9400  139.7358  167.4500 C.ar    1  UNL1       -0.0225
     25 C         142.4926  139.4943  168.8234 C.ar    1  UNL1       -0.0043
     26 C         141.5977  139.6054  170.0221 C.ar    1  UNL1       -0.0003
     27 C         140.1503  139.9582  169.8473 C.ar    1  UNL1       -0.0000
     28 C         139.5978  140.1998  168.4738 C.ar    1  UNL1       -0.0003
     29 C         140.4926  140.0886  167.2751 C.ar    1  UNL1       -0.0043
@<TRIPOS>BOND
     1    10    11    1
     2    11    12   ar
     3    12    13   ar
     4    13    14   ar
     5    14    15   ar
     6    15     4    1
     7     4     5   ar
     8     5     6   ar
     9     6     7   ar
    10     7     3    1
    11     3     2    1
    12     2     1    1
    13     1    16    1
    14    16    17    1
    15    17    18    1
    16    18    19    1
    17    20    19    1
    18    20    21    1
    19    21    22    1
    20    22    24    1
    21    24    25   ar
    22    25    26   ar
    23    26    27   ar
    24    27    28   ar
    25    28    29   ar
    26    20    23    1
    27     7     8   ar
    28     8     9    1
    29    15    11   ar
    30     8     4   ar
    31    23    17    1
    32    22    20    1
    33    29    24   ar
@<TRIPOS>MOLECULE
*****
 29 33 0 0 0
SMALL
GASTEIGER

@<TRIPOS>ATOM
      1 C         142.8281  139.2191  161.7946 C.3     1  UNL1        0.0294
      2 C         143.0250  140.2752  162.8415 C.3     1  UNL1        0.0666
      3 S         143.9509  140.0246  163.9947 S.3     1  UNL1       -0.0756
      4 C         142.7021  140.8234  167.5819 C.ar    1  UNL1        0.2029
      5 N         142.5194  139.3352  167.5360 N.ar    1  UNL1       -0.1250
      6 N         142.9650  138.8549  166.1867 N.ar    1  UNL1       -0.1220
      7 C         143.4231  140.0462  165.3986 C.ar    1  UNL1        0.1933
      8 N         143.2606  141.2628  166.2609 N.ar    1  UNL1       -0.2860
      9 C         143.5974  142.6714  165.8707 C.3     1  UNL1        0.1341
     10 C         139.8409  140.9892  169.1426 C.3     1  UNL1        0.0556
     11 C         141.0672  141.7917  169.4620 C.ar    1  UNL1        0.1001
     12 N         141.1938  142.8113  170.5549 N.ar    1  UNL1       -0.2085
     13 C         142.5872  143.3653  170.5130 C.ar    1  UNL1        0.2849
     14 O         143.3217  142.6880  169.3942 O.2     1  UNL1       -0.4283
     15 C         142.3824  141.7155  168.7447 C.ar    1  UNL1        0.1964
     16 C         141.6400  138.3061  161.8644 C.3     1  UNL1        0.0730
     17 N         140.7851  138.2805  163.0967 N.3     1  UNL1       -0.2726
     18 C         140.4162  137.0612  163.8886 C.3     1  UNL1        0.0721
     19 C         139.5522  137.4969  165.0347 C.3     1  UNL1        0.0190
     20 C         139.3871  138.9854  164.9512 C.3     1  UNL1        0.0201
     21 C         138.5197  139.1156  166.1679 C.3     1  UNL1        0.0061
     22 C         138.8886  140.3349  165.3760 C.3     1  UNL1        0.0237
     23 C         140.1491  139.4697  163.7533 C.3     1  UNL1        0.0724
     24 C         138.8138  141.8179  165.1641 C.ar    1  UNL1       -0.0225
     25 C         139.8455  142.7164  165.7791 C.ar    1  UNL1       -0.0043
     26 C         139.7707  144.1995  165.5672 C.ar    1  UNL1       -0.0003
     27 C         138.6642  144.7840  164.7402 C.ar    1  UNL1       -0.0000
     28 C         137.6325  143.8855  164.1251 C.ar    1  UNL1       -0.0003
     29 C         137.7073  142.4025  164.3371 C.ar    1  UNL1       -0.0043
@<TRIPOS>BOND
     1    10    11    1
     2    11    12   ar
     3    12    13   ar
     4    13    14   ar
     5    14    15   ar
     6    15     4    1
     7     4     5   ar
     8     5     6   ar
     9     6     7   ar
    10     7     3    1
    11     3     2    1
    12     2     1    1
    13     1    16    1
    14    16    17    1
    15    17    18    1
    16    18    19    1
    17    20    19    1
    18    20    21    1
    19    21    22    1
    20    22    24    1
    21    24    25   ar
    22    25    26   ar
    23    26    27   ar
    24    27    28   ar
    25    28    29   ar
    26    20    23    1
    27     7     8   ar
    28     8     9    1
    29    15    11   ar
    30     8     4   ar
    31    23    17    1
    32    22    20    1
    33    29    24   ar
@<TRIPOS>MOLECULE
*****
 29 33 0 0 0
SMALL
GASTEIGER

@<TRIPOS>ATOM
      1 C         138.4155  138.5046  162.0884 C.3     1  UNL1        0.0294
      2 C         137.5467  139.2614  161.1278 C.3     1  UNL1        0.0666
      3 S         138.1408  140.3352  160.2654 S.3     1  UNL1       -0.0756
      4 C         140.1689  143.1878  161.9433 C.ar    1  UNL1        0.2029
      5 N         138.8338  143.8478  161.7643 N.ar    1  UNL1       -0.1250
      6 N         137.9116  142.8596  161.1140 N.ar    1  UNL1       -0.1220
      7 C         138.6767  141.5888  160.8910 C.ar    1  UNL1        0.1933
      8 N         140.0718  141.7916  161.4035 N.ar    1  UNL1       -0.2860
      9 C         141.1759  140.7765  161.3803 C.3     1  UNL1        0.1341
     10 C         140.8061  143.4272  165.1349 C.3     1  UNL1        0.0556
     11 C         141.6801  143.9240  164.0216 C.ar    1  UNL1        0.1001
     12 N         143.0003  144.6182  164.1798 N.ar    1  UNL1       -0.2085
     13 C         143.5234  144.9372  162.8107 C.ar    1  UNL1        0.2849
     14 O         142.5264  144.4402  161.8062 O.2     1  UNL1       -0.4283
     15 C         141.3872  143.8140  162.5546 C.ar    1  UNL1        0.1964
     16 C         138.5654  138.9838  163.5018 C.3     1  UNL1        0.0730
     17 N         139.8736  138.8154  164.2161 N.3     1  UNL1       -0.2726
     18 C         141.0340  137.9885  163.7474 C.3     1  UNL1        0.0721
     19 C         142.1286  138.1064  164.7662 C.3     1  UNL1        0.0190
     20 C         141.6447  139.0061  165.8645 C.3     1  UNL1        0.0201
     21 C         142.8951  138.9326  166.6897 C.3     1  UNL1        0.0061
     22 C         141.7347  139.7595  167.1585 C.3     1  UNL1        0.0237
     23 C         140.2510  139.4443  165.5246 C.3     1  UNL1        0.0724
     24 C         141.1167  140.6719  168.1761 C.ar    1  UNL1       -0.0225
     25 C         141.6486  142.0627  168.3577 C.ar    1  UNL1       -0.0043
     26 C         141.0306  142.9750  169.3753 C.ar    1  UNL1       -0.0003
     27 C         139.8808  142.4967  170.2114 C.ar    1  UNL1       -0.0000
     28 C         139.3489  141.1059  170.0298 C.ar    1  UNL1       -0.0003
     29 C         139.9669  140.1935  169.0121 C.ar    1  UNL1       -0.0043
@<TRIPOS>BOND
     1    10    11    1
     2    11    12   ar
     3    12    13   ar
     4    13    14   ar
     5    14    15   ar
     6    15     4    1
     7     4     5   ar
     8     5     6   ar
     9     6     7   ar
    10     7     3    1
    11     3     2    1
    12     2     1    1
    13     1    16    1
    14    16    17    1
    15    17    18    1
    16    18    19    1
    17    20    19    1
    18    20    21    1
    19    21    22    1
    20    22    24    1
    21    24    25   ar
    22    25    26   ar
    23    26    27   ar
    24    27    28   ar
    25    28    29   ar
    26    20    23    1
    27     7     8   ar
    28     8     9    1
    29    15    11   ar
    30     8     4   ar
    31    23    17    1
    32    22    20    1
    33    29    24   ar
@<TRIPOS>MOLECULE
*****
 29 33 0 0 0
SMALL
GASTEIGER

@<TRIPOS>ATOM
      1 C         137.8358  139.6911  162.2878 C.3     1  UNL1        0.0294
      2 C         137.8617  139.4542  160.8068 C.3     1  UNL1        0.0666
      3 S         138.6195  140.3886  159.9109 S.3     1  UNL1       -0.0756
      4 C         140.4157  143.4272  161.5252 C.ar    1  UNL1        0.2029
      5 N         139.1953  144.0835  160.9508 N.ar    1  UNL1       -0.1250
      6 N         138.3739  143.0251  160.2763 N.ar    1  UNL1       -0.1220
      7 C         139.0866  141.7147  160.4337 C.ar    1  UNL1        0.1933
      8 N         140.3486  141.9632  161.2055 N.ar    1  UNL1       -0.2860
      9 C         141.3649  140.9292  161.5902 C.3     1  UNL1        0.1341
     10 C         140.2058  144.5776  164.5719 C.3     1  UNL1        0.0556
     11 C         141.4145  144.6431  163.6860 C.ar    1  UNL1        0.1001
     12 N         142.7389  145.2489  164.0450 N.ar    1  UNL1       -0.2085
     13 C         143.6540  145.0945  162.8665 C.ar    1  UNL1        0.2849
     14 O         142.8951  144.3933  161.7792 O.2     1  UNL1       -0.4283
     15 C         141.5110  144.1144  162.2857 C.ar    1  UNL1        0.1964
     16 C         138.3874  138.6559  163.2227 C.3     1  UNL1        0.0730
     17 N         138.9226  139.0648  164.5630 N.3     1  UNL1       -0.2726
     18 C         138.1641  139.0503  165.8570 C.3     1  UNL1        0.0721
     19 C         139.0830  139.5365  166.9383 C.3     1  UNL1        0.0190
     20 C         140.4094  139.8515  166.3126 C.3     1  UNL1        0.0201
     21 C         141.0803  140.2911  167.5801 C.3     1  UNL1        0.0061
     22 C         141.8388  140.3056  166.2861 C.3     1  UNL1        0.0237
     23 C         140.3102  139.5600  164.8445 C.3     1  UNL1        0.0724
     24 C         143.1019  140.5761  165.5236 C.ar    1  UNL1       -0.0225
     25 C         143.9058  139.4348  164.9749 C.ar    1  UNL1       -0.0043
     26 C         145.1689  139.7053  164.2125 C.ar    1  UNL1       -0.0003
     27 C         145.6281  141.1172  163.9988 C.ar    1  UNL1       -0.0000
     28 C         144.8243  142.2585  164.5476 C.ar    1  UNL1       -0.0003
     29 C         143.5611  141.9880  165.3100 C.ar    1  UNL1       -0.0043
@<TRIPOS>BOND
     1    10    11    1
     2    11    12   ar
     3    12    13   ar
     4    13    14   ar
     5    14    15   ar
     6    15     4    1
     7     4     5   ar
     8     5     6   ar
     9     6     7   ar
    10     7     3    1
    11     3     2    1
    12     2     1    1
    13     1    16    1
    14    16    17    1
    15    17    18    1
    16    18    19    1
    17    20    19    1
    18    20    21    1
    19    21    22    1
    20    22    24    1
    21    24    25   ar
    22    25    26   ar
    23    26    27   ar
    24    27    28   ar
    25    28    29   ar
    26    20    23    1
    27     7     8   ar
    28     8     9    1
    29    15    11   ar
    30     8     4   ar
    31    23    17    1
    32    22    20    1
    33    29    24   ar
