@<TRIPOS>MOLECULE
*****
 29 32 0 0 0
SMALL
GASTEIGER

@<TRIPOS>ATOM
      1 N         141.4269  143.7955  163.7260 N.3     1  UNL1       -0.2641
      2 C         142.8645  143.6231  164.1179 C.3     1  UNL1        0.0730
      3 C         143.2149  142.9042  165.3870 C.3     1  UNL1        0.0245
      4 C         142.1277  142.3577  166.2641 C.3     1  UNL1        0.0577
      5 C         140.6900  142.5301  165.8722 C.3     1  UNL1        0.1808
      6 F         139.6028  141.9836  166.7493 F       1  UNL1       -0.2354
      7 C         140.3397  143.2490  164.6031 C.3     1  UNL1        0.1084
      8 C         142.4781  141.6388  167.5331 C.ar    1  UNL1       -0.0196
      9 C         143.1282  142.3829  168.6617 C.ar    1  UNL1       -0.0011
     10 C         143.4786  141.6640  169.9307 C.ar    1  UNL1        0.0363
     11 C         143.1788  140.2010  170.0711 C.ar    1  UNL1        0.1337
     12 O         143.5292  139.4821  171.3401 O.3     1  UNL1       -0.5055
     13 C         142.5287  139.4569  168.9426 C.ar    1  UNL1        0.0363
     14 C         142.1783  140.1757  167.6736 C.ar    1  UNL1       -0.0011
     15 H         143.9353  139.9469  172.0451 H       1  UNL1        0.2922
     16 N         141.0794  145.2484  160.1436 N.am    1  UNL1       -0.2743
     17 C         139.9951  145.9929  160.8647 C.3     1  UNL1        0.0957
     18 C         139.9933  145.5393  162.2946 C.3     1  UNL1        0.0468
     19 C         141.0765  144.5143  162.4571 C.3     1  UNL1        0.1368
     20 C         141.7477  144.3346  161.1277 C.2     1  UNL1        0.2404
     21 O         142.8872  143.4043  160.8340 O.2     1  UNL1       -0.2734
     22 C         141.4333  145.3923  158.6931 C.3     1  UNL1        0.1202
     23 C         137.2333  144.5812  154.4857 C.3     1  UNL1        0.0310
     24 C         138.2833  144.7840  155.5375 C.ar    1  UNL1       -0.0219
     25 C         138.6925  143.6413  156.4188 C.ar    1  UNL1       -0.0045
     26 C         139.7425  143.8441  157.4707 C.ar    1  UNL1       -0.0029
     27 C         140.3833  145.1895  157.6412 C.ar    1  UNL1       -0.0024
     28 C         139.9740  146.3322  156.7600 C.ar    1  UNL1       -0.0029
     29 C         138.9240  146.1295  155.7081 C.ar    1  UNL1       -0.0045
@<TRIPOS>BOND
     1    23    24    1
     2    24    25   ar
     3    25    26   ar
     4    26    27   ar
     5    27    22    1
     6    22    16    1
     7    16    17    1
     8    17    18    1
     9    18    19    1
    10    19     1    1
    11     1     2    1
    12     2     3    1
    13     3     4    1
    14     4     8    1
    15     8     9   ar
    16     9    10   ar
    17    10    11   ar
    18    11    12    1
    19    11    13   ar
    20    13    14   ar
    21     4     5    1
    22     5     6    1
    23     5     7    1
    24    19    20    1
    25    20    21    2
    26    27    28   ar
    27    28    29   ar
    28    29    24   ar
    29    20    16   am
    30     7     1    1
    31    14     8   ar
    32    12    15    1
@<TRIPOS>MOLECULE
*****
 29 32 0 0 0
SMALL
GASTEIGER

@<TRIPOS>ATOM
      1 N         141.2143  138.8101  162.2763 N.3     1  UNL1       -0.2641
      2 C         141.0008  137.6617  163.2174 C.3     1  UNL1        0.0730
      3 C         140.9900  137.8980  164.6987 C.3     1  UNL1        0.0245
      4 C         141.1927  139.2826  165.2389 C.3     1  UNL1        0.0577
      5 C         141.4062  140.4310  164.2977 C.3     1  UNL1        0.1808
      6 F         141.6090  141.8156  164.8379 F       1  UNL1       -0.2354
      7 C         141.4170  140.1947  162.8165 C.3     1  UNL1        0.1084
      8 C         141.1819  139.5188  166.7201 C.ar    1  UNL1       -0.0196
      9 C         139.9086  139.9143  167.4073 C.ar    1  UNL1       -0.0011
     10 C         139.8978  140.1505  168.8885 C.ar    1  UNL1        0.0363
     11 C         141.1604  139.9913  169.6825 C.ar    1  UNL1        0.1337
     12 O         141.1496  140.2275  171.1638 O.3     1  UNL1       -0.5055
     13 C         142.4337  139.5958  168.9954 C.ar    1  UNL1        0.0363
     14 C         142.4445  139.3596  167.5142 C.ar    1  UNL1       -0.0011
     15 H         140.3542  140.4745  171.5930 H       1  UNL1        0.2922
     16 N         141.9417  137.9453  158.5631 N.am    1  UNL1       -0.2743
     17 C         140.5417  138.4754  158.4683 C.3     1  UNL1        0.0957
     18 C         140.0988  138.8639  159.8478 C.3     1  UNL1        0.0468
     19 C         141.2251  138.5739  160.7952 C.3     1  UNL1        0.1368
     20 C         142.3640  138.0061  160.0012 C.2     1  UNL1        0.2404
     21 O         143.6922  137.5750  160.5490 O.2     1  UNL1       -0.2734
     22 C         142.7733  137.4426  157.4205 C.3     1  UNL1        0.1202
     23 C         141.7962  131.9622  155.1821 C.3     1  UNL1        0.0310
     24 C         142.0405  133.3323  155.7417 C.ar    1  UNL1       -0.0219
     25 C         141.2985  134.5121  155.1872 C.ar    1  UNL1       -0.0045
     26 C         141.5428  135.8822  155.7468 C.ar    1  UNL1       -0.0029
     27 C         142.5290  136.0725  156.8609 C.ar    1  UNL1       -0.0024
     28 C         143.2710  134.8926  157.4153 C.ar    1  UNL1       -0.0029
     29 C         143.0267  133.5225  156.8557 C.ar    1  UNL1       -0.0045
@<TRIPOS>BOND
     1    23    24    1
     2    24    25   ar
     3    25    26   ar
     4    26    27   ar
     5    27    22    1
     6    22    16    1
     7    16    17    1
     8    17    18    1
     9    18    19    1
    10    19     1    1
    11     1     2    1
    12     2     3    1
    13     3     4    1
    14     4     8    1
    15     8     9   ar
    16     9    10   ar
    17    10    11   ar
    18    11    12    1
    19    11    13   ar
    20    13    14   ar
    21     4     5    1
    22     5     6    1
    23     5     7    1
    24    19    20    1
    25    20    21    2
    26    27    28   ar
    27    28    29   ar
    28    29    24   ar
    29    20    16   am
    30     7     1    1
    31    14     8   ar
    32    12    15    1
@<TRIPOS>MOLECULE
*****
 29 32 0 0 0
SMALL
GASTEIGER

@<TRIPOS>ATOM
      1 N         141.2112  138.7888  162.2736 N.3     1  UNL1       -0.2641
      2 C         141.0968  137.6356  163.2261 C.3     1  UNL1        0.0730
      3 C         141.1152  137.8804  164.7059 C.3     1  UNL1        0.0245
      4 C         141.2480  139.2783  165.2332 C.3     1  UNL1        0.0577
      5 C         141.3625  140.4316  164.2808 C.3     1  UNL1        0.1808
      6 F         141.4953  141.8295  164.8082 F       1  UNL1       -0.2354
      7 C         141.3441  140.1867  162.8010 C.3     1  UNL1        0.1084
      8 C         141.2664  139.5231  166.7130 C.ar    1  UNL1       -0.0196
      9 C         142.5527  139.4089  167.4762 C.ar    1  UNL1       -0.0011
     10 C         142.5711  139.6536  168.9560 C.ar    1  UNL1        0.0363
     11 C         141.3031  140.0126  169.6725 C.ar    1  UNL1        0.1337
     12 O         141.3215  140.2574  171.1523 O.3     1  UNL1       -0.5055
     13 C         140.0168  140.1268  168.9094 C.ar    1  UNL1        0.0363
     14 C         139.9984  139.8821  167.4297 C.ar    1  UNL1       -0.0011
     15 H         142.1250  140.1860  171.6290 H       1  UNL1        0.2922
     16 N         141.8827  137.9526  158.5433 N.am    1  UNL1       -0.2743
     17 C         140.4465  138.3822  158.4901 C.3     1  UNL1        0.0957
     18 C         140.0201  138.7478  159.8811 C.3     1  UNL1        0.0468
     19 C         141.1929  138.5441  160.7939 C.3     1  UNL1        0.1368
     20 C         142.3439  138.0526  159.9672 C.2     1  UNL1        0.2404
     21 O         143.7155  137.7196  160.4750 O.2     1  UNL1       -0.2734
     22 C         142.7119  137.5021  157.3775 C.3     1  UNL1        0.1202
     23 C         142.0422  131.9578  155.1838 C.3     1  UNL1        0.0310
     24 C         142.2096  133.3439  155.7322 C.ar    1  UNL1       -0.0219
     25 C         143.1827  133.5976  156.8451 C.ar    1  UNL1       -0.0045
     26 C         143.3502  134.9837  157.3935 C.ar    1  UNL1       -0.0029
     27 C         142.5445  136.1160  156.8290 C.ar    1  UNL1       -0.0024
     28 C         141.5714  135.8622  155.7161 C.ar    1  UNL1       -0.0029
     29 C         141.4040  134.4762  155.1677 C.ar    1  UNL1       -0.0045
@<TRIPOS>BOND
     1    23    24    1
     2    24    25   ar
     3    25    26   ar
     4    26    27   ar
     5    27    22    1
     6    22    16    1
     7    16    17    1
     8    17    18    1
     9    18    19    1
    10    19     1    1
    11     1     2    1
    12     2     3    1
    13     3     4    1
    14     4     8    1
    15     8     9   ar
    16     9    10   ar
    17    10    11   ar
    18    11    12    1
    19    11    13   ar
    20    13    14   ar
    21     4     5    1
    22     5     6    1
    23     5     7    1
    24    19    20    1
    25    20    21    2
    26    27    28   ar
    27    28    29   ar
    28    29    24   ar
    29    20    16   am
    30     7     1    1
    31    14     8   ar
    32    12    15    1
@<TRIPOS>MOLECULE
*****
 29 32 0 0 0
SMALL
GASTEIGER

@<TRIPOS>ATOM
      1 N         143.3523  140.7883  162.9000 N.3     1  UNL1       -0.2641
      2 C         144.2657  139.9749  163.7683 C.3     1  UNL1        0.0730
      3 C         144.0706  139.9603  165.2555 C.3     1  UNL1        0.0245
      4 C         142.9621  140.7592  165.8744 C.3     1  UNL1        0.0577
      5 C         142.0486  141.5726  165.0061 C.3     1  UNL1        0.1808
      6 F         140.9401  142.3715  165.6250 F       1  UNL1       -0.2354
      7 C         142.2438  141.5871  163.5189 C.3     1  UNL1        0.1084
      8 C         142.7670  140.7446  167.3616 C.ar    1  UNL1       -0.0196
      9 C         142.3621  139.4763  168.0526 C.ar    1  UNL1       -0.0011
     10 C         142.1671  139.4618  169.5398 C.ar    1  UNL1        0.0363
     11 C         142.3768  140.7156  170.3359 C.ar    1  UNL1        0.1337
     12 O         142.1818  140.7011  171.8231 O.3     1  UNL1       -0.5055
     13 C         142.7817  141.9839  169.6450 C.ar    1  UNL1        0.0363
     14 C         142.9768  141.9985  168.1579 C.ar    1  UNL1       -0.0011
     15 H         141.9289  139.9088  172.2548 H       1  UNL1        0.2922
     16 N         143.9648  141.5657  159.1469 N.am    1  UNL1       -0.2743
     17 C         143.7303  140.0848  159.1016 C.3     1  UNL1        0.0957
     18 C         143.4722  139.6133  160.5021 C.3     1  UNL1        0.0468
     19 C         143.5473  140.8028  161.4129 C.3     1  UNL1        0.1368
     20 C         143.8518  142.0094  160.5754 C.2     1  UNL1        0.2404
     21 O         144.0145  143.4133  161.0779 O.2     1  UNL1       -0.2734
     22 C         144.2605  142.4479  157.9704 C.3     1  UNL1        0.1202
     23 C         149.3979  141.7881  154.9419 C.3     1  UNL1        0.0310
     24 C         148.1136  141.9531  155.6991 C.ar    1  UNL1       -0.0219
     25 C         146.8534  141.3230  155.1845 C.ar    1  UNL1       -0.0045
     26 C         145.5690  141.4879  155.9416 C.ar    1  UNL1       -0.0029
     27 C         145.5449  142.2829  157.2133 C.ar    1  UNL1       -0.0024
     28 C         146.8051  142.9130  157.7279 C.ar    1  UNL1       -0.0029
     29 C         148.0894  142.7481  156.9708 C.ar    1  UNL1       -0.0045
@<TRIPOS>BOND
     1    23    24    1
     2    24    25   ar
     3    25    26   ar
     4    26    27   ar
     5    27    22    1
     6    22    16    1
     7    16    17    1
     8    17    18    1
     9    18    19    1
    10    19     1    1
    11     1     2    1
    12     2     3    1
    13     3     4    1
    14     4     8    1
    15     8     9   ar
    16     9    10   ar
    17    10    11   ar
    18    11    12    1
    19    11    13   ar
    20    13    14   ar
    21     4     5    1
    22     5     6    1
    23     5     7    1
    24    19    20    1
    25    20    21    2
    26    27    28   ar
    27    28    29   ar
    28    29    24   ar
    29    20    16   am
    30     7     1    1
    31    14     8   ar
    32    12    15    1
@<TRIPOS>MOLECULE
*****
 29 32 0 0 0
SMALL
GASTEIGER

@<TRIPOS>ATOM
      1 N         140.0262  139.7410  163.4494 N.3     1  UNL1       -0.2641
      2 C         139.0492  140.7649  163.9466 C.3     1  UNL1        0.0730
      3 C         139.0886  141.2052  165.3800 C.3     1  UNL1        0.0245
      4 C         140.1050  140.6216  166.3162 C.3     1  UNL1        0.0577
      5 C         141.0820  139.5977  165.8190 C.3     1  UNL1        0.1808
      6 F         142.0984  139.0142  166.7552 F       1  UNL1       -0.2354
      7 C         141.0426  139.1575  164.3856 C.3     1  UNL1        0.1084
      8 C         140.1444  141.0620  167.7496 C.ar    1  UNL1       -0.0196
      9 C         140.6425  142.4328  168.0997 C.ar    1  UNL1       -0.0011
     10 C         140.6819  142.8731  169.5331 C.ar    1  UNL1        0.0363
     11 C         140.2232  141.9425  170.6163 C.ar    1  UNL1        0.1337
     12 O         140.2626  142.3828  172.0497 O.3     1  UNL1       -0.5055
     13 C         139.7251  140.5716  170.2663 C.ar    1  UNL1        0.0363
     14 C         139.6857  140.1313  168.8330 C.ar    1  UNL1       -0.0011
     15 H         140.5737  143.2391  172.2684 H       1  UNL1        0.2922
     16 N         140.5380  139.0328  159.6677 N.am    1  UNL1       -0.2743
     17 C         139.3144  138.2134  159.9530 C.3     1  UNL1        0.0957
     18 C         138.9737  138.3790  161.4045 C.3     1  UNL1        0.0468
     19 C         139.9868  139.3007  162.0161 C.3     1  UNL1        0.1368
     20 C         140.9536  139.7048  160.9428 C.2     1  UNL1        0.2404
     21 O         142.1295  140.6200  161.1143 O.2     1  UNL1       -0.2734
     22 C         141.2254  139.1582  158.3404 C.3     1  UNL1        0.1202
     23 C         142.1334  134.2850  154.9599 C.3     1  UNL1        0.0310
     24 C         141.9064  135.5033  155.8050 C.ar    1  UNL1       -0.0219
     25 C         140.6671  136.3270  155.6159 C.ar    1  UNL1       -0.0045
     26 C         140.4401  137.5453  156.4611 C.ar    1  UNL1       -0.0029
     27 C         141.4524  137.9399  157.4952 C.ar    1  UNL1       -0.0024
     28 C         142.6916  137.1162  157.6843 C.ar    1  UNL1       -0.0029
     29 C         142.9186  135.8979  156.8392 C.ar    1  UNL1       -0.0045
@<TRIPOS>BOND
     1    23    24    1
     2    24    25   ar
     3    25    26   ar
     4    26    27   ar
     5    27    22    1
     6    22    16    1
     7    16    17    1
     8    17    18    1
     9    18    19    1
    10    19     1    1
    11     1     2    1
    12     2     3    1
    13     3     4    1
    14     4     8    1
    15     8     9   ar
    16     9    10   ar
    17    10    11   ar
    18    11    12    1
    19    11    13   ar
    20    13    14   ar
    21     4     5    1
    22     5     6    1
    23     5     7    1
    24    19    20    1
    25    20    21    2
    26    27    28   ar
    27    28    29   ar
    28    29    24   ar
    29    20    16   am
    30     7     1    1
    31    14     8   ar
    32    12    15    1
@<TRIPOS>MOLECULE
*****
 29 32 0 0 0
SMALL
GASTEIGER

@<TRIPOS>ATOM
      1 N         141.0351  142.5298  163.2975 N.3     1  UNL1       -0.2641
      2 C         139.6912  142.3884  163.9487 C.3     1  UNL1        0.0730
      3 C         139.5861  142.3141  165.4431 C.3     1  UNL1        0.0245
      4 C         140.8248  142.3813  166.2864 C.3     1  UNL1        0.0577
      5 C         142.1687  142.5227  165.6352 C.3     1  UNL1        0.1808
      6 F         143.4074  142.5899  166.4785 F       1  UNL1       -0.2354
      7 C         142.2737  142.5970  164.1407 C.3     1  UNL1        0.1084
      8 C         140.7196  142.3070  167.7809 C.ar    1  UNL1       -0.0196
      9 C         141.0058  141.0164  168.4897 C.ar    1  UNL1       -0.0011
     10 C         140.9007  140.9421  169.9841 C.ar    1  UNL1        0.0363
     11 C         140.5094  142.1585  170.7698 C.ar    1  UNL1        0.1337
     12 O         140.4042  142.0842  172.2642 O.3     1  UNL1       -0.5055
     13 C         140.2232  143.4492  170.0610 C.ar    1  UNL1        0.0363
     14 C         140.3283  143.5234  168.5666 C.ar    1  UNL1       -0.0011
     15 H         140.5830  141.2780  172.7070 H       1  UNL1        0.2922
     16 N         141.8199  143.2573  159.5665 N.am    1  UNL1       -0.2743
     17 C         140.7841  142.1796  159.4400 C.3     1  UNL1        0.0957
     18 C         140.3641  141.7759  160.8223 C.3     1  UNL1        0.0468
     19 C         141.1402  142.6041  161.8031 C.3     1  UNL1        0.1368
     20 C         142.0399  143.5196  161.0269 C.2     1  UNL1        0.2404
     21 O         142.9924  144.5215  161.6089 O.2     1  UNL1       -0.2734
     22 C         142.5137  143.9508  158.4318 C.3     1  UNL1        0.1202
     23 C         139.4085  147.5396  154.7606 C.3     1  UNL1        0.0310
     24 C         140.1848  146.6424  155.6784 C.ar    1  UNL1       -0.0219
     25 C         139.8391  146.5812  157.1367 C.ar    1  UNL1       -0.0045
     26 C         140.6154  145.6840  158.0545 C.ar    1  UNL1       -0.0029
     27 C         141.7374  144.8480  157.5140 C.ar    1  UNL1       -0.0024
     28 C         142.0831  144.9092  156.0557 C.ar    1  UNL1       -0.0029
     29 C         141.3067  145.8064  155.1379 C.ar    1  UNL1       -0.0045
@<TRIPOS>BOND
     1    23    24    1
     2    24    25   ar
     3    25    26   ar
     4    26    27   ar
     5    27    22    1
     6    22    16    1
     7    16    17    1
     8    17    18    1
     9    18    19    1
    10    19     1    1
    11     1     2    1
    12     2     3    1
    13     3     4    1
    14     4     8    1
    15     8     9   ar
    16     9    10   ar
    17    10    11   ar
    18    11    12    1
    19    11    13   ar
    20    13    14   ar
    21     4     5    1
    22     5     6    1
    23     5     7    1
    24    19    20    1
    25    20    21    2
    26    27    28   ar
    27    28    29   ar
    28    29    24   ar
    29    20    16   am
    30     7     1    1
    31    14     8   ar
    32    12    15    1
@<TRIPOS>MOLECULE
*****
 29 32 0 0 0
SMALL
GASTEIGER

@<TRIPOS>ATOM
      1 N         140.5046  143.7762  163.6509 N.3     1  UNL1       -0.2641
      2 C         139.2467  143.7527  164.4677 C.3     1  UNL1        0.0730
      3 C         139.2731  143.2215  165.8703 C.3     1  UNL1        0.0245
      4 C         140.5573  142.7139  166.4561 C.3     1  UNL1        0.0577
      5 C         141.8152  142.7374  165.6393 C.3     1  UNL1        0.1808
      6 F         143.0994  142.2298  166.2250 F       1  UNL1       -0.2354
      7 C         141.7888  143.2686  164.2367 C.3     1  UNL1        0.1084
      8 C         140.5836  142.1827  167.8587 C.ar    1  UNL1       -0.0196
      9 C         140.4809  143.1264  169.0201 C.ar    1  UNL1       -0.0011
     10 C         140.5072  142.5952  170.4226 C.ar    1  UNL1        0.0363
     11 C         140.6363  141.1204  170.6637 C.ar    1  UNL1        0.1337
     12 O         140.6627  140.5892  172.0663 O.3     1  UNL1       -0.5055
     13 C         140.7391  140.1767  169.5023 C.ar    1  UNL1        0.0363
     14 C         140.7127  140.7078  168.0998 C.ar    1  UNL1       -0.0011
     15 H         140.5985  141.1787  172.7918 H       1  UNL1        0.2922
     16 N         140.6069  144.4425  159.8285 N.am    1  UNL1       -0.2743
     17 C         140.2685  145.8070  160.3516 C.3     1  UNL1        0.0957
     18 C         140.1890  145.7235  161.8472 C.3     1  UNL1        0.0468
     19 C         140.4783  144.3074  162.2484 C.3     1  UNL1        0.1368
     20 C         140.7366  143.5157  161.0009 C.2     1  UNL1        0.2404
     21 O         141.0666  142.0539  160.9367 O.2     1  UNL1       -0.2734
     22 C         140.7846  144.0702  158.3864 C.3     1  UNL1        0.1202
     23 C         136.0134  142.6035  155.0570 C.3     1  UNL1        0.0310
     24 C         137.2062  142.9702  155.8893 C.ar    1  UNL1       -0.0219
     25 C         137.4407  142.2890  157.2050 C.ar    1  UNL1       -0.0045
     26 C         138.6335  142.6557  158.0373 C.ar    1  UNL1       -0.0029
     27 C         139.5918  143.7035  157.5540 C.ar    1  UNL1       -0.0024
     28 C         139.3573  144.3847  156.2384 C.ar    1  UNL1       -0.0029
     29 C         138.1645  144.0180  155.4060 C.ar    1  UNL1       -0.0045
@<TRIPOS>BOND
     1    23    24    1
     2    24    25   ar
     3    25    26   ar
     4    26    27   ar
     5    27    22    1
     6    22    16    1
     7    16    17    1
     8    17    18    1
     9    18    19    1
    10    19     1    1
    11     1     2    1
    12     2     3    1
    13     3     4    1
    14     4     8    1
    15     8     9   ar
    16     9    10   ar
    17    10    11   ar
    18    11    12    1
    19    11    13   ar
    20    13    14   ar
    21     4     5    1
    22     5     6    1
    23     5     7    1
    24    19    20    1
    25    20    21    2
    26    27    28   ar
    27    28    29   ar
    28    29    24   ar
    29    20    16   am
    30     7     1    1
    31    14     8   ar
    32    12    15    1
@<TRIPOS>MOLECULE
*****
 29 32 0 0 0
SMALL
GASTEIGER

@<TRIPOS>ATOM
      1 N         139.9377  141.2223  163.1425 N.3     1  UNL1       -0.2641
      2 C         138.7572  140.8722  163.9992 C.3     1  UNL1        0.0730
      3 C         138.8405  141.0238  165.4892 C.3     1  UNL1        0.0245
      4 C         140.1043  141.5256  166.1226 C.3     1  UNL1        0.0577
      5 C         141.2849  141.8757  165.2659 C.3     1  UNL1        0.1808
      6 F         142.5486  142.3774  165.8993 F       1  UNL1       -0.2354
      7 C         141.2015  141.7240  163.7759 C.3     1  UNL1        0.1084
      8 C         140.1876  141.6772  167.6126 C.ar    1  UNL1       -0.0196
      9 C         140.1081  140.4670  168.4952 C.ar    1  UNL1       -0.0011
     10 C         140.1914  140.6186  169.9852 C.ar    1  UNL1        0.0363
     11 C         140.3541  141.9805  170.5925 C.ar    1  UNL1        0.1337
     12 O         140.4374  142.1322  172.0825 O.3     1  UNL1       -0.5055
     13 C         140.4336  143.1907  169.7098 C.ar    1  UNL1        0.0363
     14 C         140.3503  143.0391  168.2199 C.ar    1  UNL1       -0.0011
     15 H         140.3878  141.3762  172.6338 H       1  UNL1        0.2922
     16 N         139.5258  140.1195  159.4439 N.am    1  UNL1       -0.2743
     17 C         139.9267  141.5551  159.2754 C.3     1  UNL1        0.0957
     18 C         140.1299  142.1430  160.6405 C.3     1  UNL1        0.0468
     19 C         139.8544  141.0707  161.6526 C.3     1  UNL1        0.1368
     20 C         139.4812  139.8202  160.9132 C.2     1  UNL1        0.2404
     21 O         139.1256  138.5017  161.5338 O.2     1  UNL1       -0.2734
     22 C         139.2228  139.1531  158.3376 C.3     1  UNL1        0.1202
     23 C         143.6088  135.7822  156.0136 C.3     1  UNL1        0.0310
     24 C         142.5123  136.6249  156.5946 C.ar    1  UNL1       -0.0219
     25 C         142.7656  137.4385  157.8290 C.ar    1  UNL1       -0.0045
     26 C         141.6691  138.2812  158.4100 C.ar    1  UNL1       -0.0029
     27 C         140.3193  138.3103  157.7566 C.ar    1  UNL1       -0.0024
     28 C         140.0660  137.4968  156.5221 C.ar    1  UNL1       -0.0029
     29 C         141.1624  136.6541  155.9411 C.ar    1  UNL1       -0.0045
@<TRIPOS>BOND
     1    23    24    1
     2    24    25   ar
     3    25    26   ar
     4    26    27   ar
     5    27    22    1
     6    22    16    1
     7    16    17    1
     8    17    18    1
     9    18    19    1
    10    19     1    1
    11     1     2    1
    12     2     3    1
    13     3     4    1
    14     4     8    1
    15     8     9   ar
    16     9    10   ar
    17    10    11   ar
    18    11    12    1
    19    11    13   ar
    20    13    14   ar
    21     4     5    1
    22     5     6    1
    23     5     7    1
    24    19    20    1
    25    20    21    2
    26    27    28   ar
    27    28    29   ar
    28    29    24   ar
    29    20    16   am
    30     7     1    1
    31    14     8   ar
    32    12    15    1
@<TRIPOS>MOLECULE
*****
 29 32 0 0 0
SMALL
GASTEIGER

@<TRIPOS>ATOM
      1 N         141.5164  139.8679  163.3438 N.3     1  UNL1       -0.2641
      2 C         140.0981  140.2334  163.6675 C.3     1  UNL1        0.0730
      3 C         139.7475  140.7393  165.0354 C.3     1  UNL1        0.0245
      4 C         140.8151  140.8798  166.0796 C.3     1  UNL1        0.0577
      5 C         142.2335  140.5143  165.7560 C.3     1  UNL1        0.1808
      6 F         143.3012  140.6548  166.8002 F       1  UNL1       -0.2354
      7 C         142.5841  140.0084  164.3881 C.3     1  UNL1        0.1084
      8 C         140.4645  141.3857  167.4475 C.ar    1  UNL1       -0.0196
      9 C         140.7548  142.8100  167.8176 C.ar    1  UNL1       -0.0011
     10 C         140.4042  143.3159  169.1855 C.ar    1  UNL1        0.0363
     11 C         139.7631  142.3974  170.1833 C.ar    1  UNL1        0.1337
     12 O         139.4125  142.9033  171.5511 O.3     1  UNL1       -0.5055
     13 C         139.4728  140.9731  169.8132 C.ar    1  UNL1        0.0363
     14 C         139.8234  140.4672  168.4453 C.ar    1  UNL1       -0.0011
     15 H         139.5939  143.7930  171.7823 H       1  UNL1        0.2922
     16 N         142.2040  139.2423  159.5754 N.am    1  UNL1       -0.2743
     17 C         142.6094  137.9247  160.1666 C.3     1  UNL1        0.0957
     18 C         142.4012  137.9987  161.6504 C.3     1  UNL1        0.0468
     19 C         141.8671  139.3620  161.9760 C.3     1  UNL1        0.1368
     20 C         141.7452  140.1306  160.6937 C.2     1  UNL1        0.2404
     21 O         141.2513  141.5400  160.5541 O.2     1  UNL1       -0.2734
     22 C         142.2494  139.6075  158.1213 C.3     1  UNL1        0.1202
     23 C         147.1857  142.1163  155.8107 C.3     1  UNL1        0.0310
     24 C         145.9516  141.4891  156.3884 C.ar    1  UNL1       -0.0219
     25 C         145.3649  140.2640  155.7522 C.ar    1  UNL1       -0.0045
     26 C         144.1308  139.6368  156.3298 C.ar    1  UNL1       -0.0029
     27 C         143.4835  140.2347  157.5436 C.ar    1  UNL1       -0.0024
     28 C         144.0702  141.4598  158.1798 C.ar    1  UNL1       -0.0029
     29 C         145.3043  142.0871  157.6022 C.ar    1  UNL1       -0.0045
@<TRIPOS>BOND
     1    23    24    1
     2    24    25   ar
     3    25    26   ar
     4    26    27   ar
     5    27    22    1
     6    22    16    1
     7    16    17    1
     8    17    18    1
     9    18    19    1
    10    19     1    1
    11     1     2    1
    12     2     3    1
    13     3     4    1
    14     4     8    1
    15     8     9   ar
    16     9    10   ar
    17    10    11   ar
    18    11    12    1
    19    11    13   ar
    20    13    14   ar
    21     4     5    1
    22     5     6    1
    23     5     7    1
    24    19    20    1
    25    20    21    2
    26    27    28   ar
    27    28    29   ar
    28    29    24   ar
    29    20    16   am
    30     7     1    1
    31    14     8   ar
    32    12    15    1
