@<TRIPOS>MOLECULE
*****
 37 42 0 0 0
SMALL
GASTEIGER

@<TRIPOS>ATOM
      1 C         140.2296  145.9346  160.6467 C.3     1  UNL1        0.2068
      2 O         139.0999  145.7577  161.6174 O.3     1  UNL1       -0.4754
      3 C         139.0890  142.2558  164.4434 C.ar    1  UNL1       -0.0135
      4 C         137.7975  142.7654  163.8756 C.ar    1  UNL1       -0.0007
      5 C         137.8011  143.9327  162.9336 C.ar    1  UNL1        0.0366
      6 C         139.0963  144.5903  162.5594 C.ar    1  UNL1        0.1385
      7 C         140.3877  144.0807  163.1272 C.ar    1  UNL1        0.0366
      8 C         140.3841  142.9134  164.0692 C.ar    1  UNL1       -0.0007
      9 C         138.1031  139.9714  165.1914 C.3     1  UNL1        0.0145
     10 C         139.0853  141.0884  165.3854 C.3     1  UNL1        0.0988
     11 C         140.0636  141.0381  166.5213 C.ar    1  UNL1        0.2093
     12 N         140.2510  139.8944  167.4735 N.ar    1  UNL1       -0.2118
     13 C         141.3296  140.2721  168.4451 C.ar    1  UNL1        0.1185
     14 C         141.9372  139.5400  169.6047 C.ar    1  UNL1        0.0223
     15 C         143.0241  140.1850  170.4126 C.ar    1  UNL1        0.0017
     16 C         143.5033  141.5621  170.0607 C.ar    1  UNL1        0.0032
     17 C         142.8957  142.2943  168.9011 C.ar    1  UNL1        0.0391
     18 C         141.8088  141.6493  168.0933 C.ar    1  UNL1        0.1644
     19 O         141.0264  142.1227  166.9043 O.2     1  UNL1       -0.4381
     20 C         140.0055  145.6939  159.1832 C.3     1  UNL1        0.0646
     21 C         140.3775  144.3744  158.5746 C.3     1  UNL1        0.0759
     22 N         140.4476  143.1459  159.4324 N.3     1  UNL1       -0.2725
     23 C         141.7725  142.6628  159.9437 C.3     1  UNL1        0.0725
     24 C         141.8426  141.4343  160.8016 C.3     1  UNL1        0.0234
     25 C         140.5878  140.6889  161.1481 C.3     1  UNL1        0.0464
     26 C         139.2630  141.1720  160.6368 C.3     1  UNL1        0.0234
     27 C         139.1929  142.4005  159.7790 C.3     1  UNL1        0.0725
     28 C         140.6579  139.4604  162.0060 C.ar    1  UNL1        0.1003
     29 N         139.8819  138.1938  161.7972 N.ar    1  UNL1       -0.0814
     30 O         140.2607  137.2335  162.8855 O.2     1  UNL1       -0.3536
     31 C         141.2708  137.9065  163.7668 C.ar    1  UNL1        0.1787
     32 C         141.9988  137.4440  164.9940 C.ar    1  UNL1        0.0698
     33 C         142.9722  138.3577  165.6776 C.ar    1  UNL1        0.1433
     34 F         143.7003  137.8952  166.9048 F       1  UNL1       -0.2041
     35 C         143.2177  139.7341  165.1340 C.ar    1  UNL1        0.0299
     36 C         142.4897  140.1966  163.9068 C.ar    1  UNL1        0.0067
     37 C         141.5163  139.2829  163.2232 C.ar    1  UNL1        0.0540
@<TRIPOS>BOND
     1     9    10    1
     2    10     3    1
     3     3     4   ar
     4     4     5   ar
     5     5     6   ar
     6     6     2    1
     7     2     1    1
     8     1    20    1
     9    20    21    1
    10    21    22    1
    11    22    23    1
    12    23    24    1
    13    24    25    1
    14    25    28    1
    15    28    29   ar
    16    29    30   ar
    17    30    31   ar
    18    31    32   ar
    19    32    33   ar
    20    33    34    1
    21    33    35   ar
    22    35    36   ar
    23    36    37   ar
    24    25    26    1
    25    26    27    1
    26     6     7   ar
    27     7     8   ar
    28    10    11    1
    29    11    12   ar
    30    12    13   ar
    31    13    14   ar
    32    14    15   ar
    33    15    16   ar
    34    16    17   ar
    35    17    18   ar
    36    18    19   ar
    37     8     3   ar
    38    19    11   ar
    39    27    22    1
    40    18    13   ar
    41    37    28   ar
    42    37    31   ar
@<TRIPOS>MOLECULE
*****
 37 42 0 0 0
SMALL
GASTEIGER

@<TRIPOS>ATOM
      1 C         140.8124  145.0749  159.1256 C.3     1  UNL1        0.2068
      2 O         141.8469  145.2325  160.2003 O.3     1  UNL1       -0.4754
      3 C         142.3291  142.0484  163.3433 C.ar    1  UNL1       -0.0135
      4 C         143.4977  142.4426  162.4896 C.ar    1  UNL1       -0.0007
      5 C         143.3370  143.5039  161.4419 C.ar    1  UNL1        0.0366
      6 C         142.0076  144.1711  161.2480 C.ar    1  UNL1        0.1385
      7 C         140.8390  143.7769  162.1018 C.ar    1  UNL1        0.0366
      8 C         140.9997  142.7155  163.1495 C.ar    1  UNL1       -0.0007
      9 C         143.2990  139.7588  164.0962 C.3     1  UNL1        0.0145
     10 C         142.4899  140.9870  164.3910 C.3     1  UNL1        0.0988
     11 C         141.8417  141.1537  165.7334 C.ar    1  UNL1        0.2093
     12 N         141.7023  142.4405  166.4914 N.ar    1  UNL1       -0.2118
     13 C         140.9935  142.1450  167.7800 C.ar    1  UNL1        0.1185
     14 C         140.5814  143.0241  168.9234 C.ar    1  UNL1        0.0223
     15 C         139.8708  142.4337  170.1051 C.ar    1  UNL1        0.0017
     16 C         139.5722  140.9643  170.1433 C.ar    1  UNL1        0.0032
     17 C         139.9842  140.0852  168.9999 C.ar    1  UNL1        0.0391
     18 C         140.6949  140.6755  167.8182 C.ar    1  UNL1        0.1644
     19 O         141.2191  140.0629  166.5534 O.2     1  UNL1       -0.4381
     20 C         141.1858  144.4588  157.8099 C.3     1  UNL1        0.0646
     21 C         140.7444  143.0629  157.4833 C.3     1  UNL1        0.0759
     22 N         140.6618  142.0294  158.5673 N.3     1  UNL1       -0.2725
     23 C         139.3590  141.7793  159.2674 C.3     1  UNL1        0.0725
     24 C         139.2764  140.7458  160.3514 C.3     1  UNL1        0.0234
     25 C         140.4968  139.9624  160.7353 C.3     1  UNL1        0.0464
     26 C         141.7994  140.2125  160.0351 C.3     1  UNL1        0.0234
     27 C         141.8820  141.2460  158.9511 C.3     1  UNL1        0.0725
     28 C         140.4142  138.9288  161.8193 C.ar    1  UNL1        0.1003
     29 N         141.1028  137.5963  161.8212 N.ar    1  UNL1       -0.0814
     30 O         140.7427  136.8904  163.0948 O.2     1  UNL1       -0.3536
     31 C         139.8315  137.7867  163.8800 C.ar    1  UNL1        0.1787
     32 C         139.1605  137.6184  165.2109 C.ar    1  UNL1        0.0698
     33 C         138.2864  138.7100  165.7534 C.ar    1  UNL1        0.1433
     34 F         137.6153  138.5417  167.0844 F       1  UNL1       -0.2041
     35 C         138.0834  139.9698  164.9651 C.ar    1  UNL1        0.0299
     36 C         138.7544  140.1381  163.6342 C.ar    1  UNL1        0.0067
     37 C         139.6285  139.0465  163.0916 C.ar    1  UNL1        0.0540
@<TRIPOS>BOND
     1     9    10    1
     2    10     3    1
     3     3     4   ar
     4     4     5   ar
     5     5     6   ar
     6     6     2    1
     7     2     1    1
     8     1    20    1
     9    20    21    1
    10    21    22    1
    11    22    23    1
    12    23    24    1
    13    24    25    1
    14    25    28    1
    15    28    29   ar
    16    29    30   ar
    17    30    31   ar
    18    31    32   ar
    19    32    33   ar
    20    33    34    1
    21    33    35   ar
    22    35    36   ar
    23    36    37   ar
    24    25    26    1
    25    26    27    1
    26     6     7   ar
    27     7     8   ar
    28    10    11    1
    29    11    12   ar
    30    12    13   ar
    31    13    14   ar
    32    14    15   ar
    33    15    16   ar
    34    16    17   ar
    35    17    18   ar
    36    18    19   ar
    37     8     3   ar
    38    19    11   ar
    39    27    22    1
    40    18    13   ar
    41    37    28   ar
    42    37    31   ar
@<TRIPOS>MOLECULE
*****
 37 42 0 0 0
SMALL
GASTEIGER

@<TRIPOS>ATOM
      1 C         140.9585  145.4468  158.6220 C.3     1  UNL1        0.2068
      2 O         141.8782  145.0266  159.7299 O.3     1  UNL1       -0.4754
      3 C         140.2443  144.3118  163.8613 C.ar    1  UNL1       -0.0135
      4 C         141.7101  144.5645  163.6679 C.ar    1  UNL1       -0.0007
      5 C         142.2548  144.8028  162.2907 C.ar    1  UNL1        0.0366
      6 C         141.3336  144.7883  161.1071 C.ar    1  UNL1        0.1385
      7 C         139.8677  144.5356  161.3005 C.ar    1  UNL1        0.0366
      8 C         139.3230  144.2973  162.6777 C.ar    1  UNL1       -0.0007
      9 C         138.5414  144.8854  165.7378 C.3     1  UNL1        0.0145
     10 C         139.6997  144.0735  165.2385 C.3     1  UNL1        0.0988
     11 C         140.3133  143.0234  166.1165 C.ar    1  UNL1        0.2093
     12 N         140.2333  142.9687  167.6133 N.ar    1  UNL1       -0.2118
     13 C         140.9852  141.7551  168.0736 C.ar    1  UNL1        0.1185
     14 C         141.2443  141.1934  169.4401 C.ar    1  UNL1        0.0223
     15 C         142.0481  139.9363  169.5943 C.ar    1  UNL1        0.0017
     16 C         142.5927  139.2411  168.3819 C.ar    1  UNL1        0.0032
     17 C         142.3336  139.8028  167.0154 C.ar    1  UNL1        0.0391
     18 C         141.5299  141.0599  166.8612 C.ar    1  UNL1        0.1644
     19 O         141.1146  141.8437  165.6517 O.2     1  UNL1       -0.4381
     20 C         140.7962  144.5761  157.4113 C.3     1  UNL1        0.0646
     21 C         139.7579  143.4937  157.3998 C.3     1  UNL1        0.0759
     22 N         139.7695  142.4320  158.4593 N.3     1  UNL1       -0.2725
     23 C         138.4901  142.0276  159.1299 C.3     1  UNL1        0.0725
     24 C         138.5017  140.9659  160.1895 C.3     1  UNL1        0.0234
     25 C         139.7928  140.3086  160.5785 C.3     1  UNL1        0.0464
     26 C         141.0721  140.7130  159.9079 C.3     1  UNL1        0.0234
     27 C         141.0605  141.7746  158.8483 C.3     1  UNL1        0.0725
     28 C         139.8044  139.2469  161.6381 C.ar    1  UNL1        0.1003
     29 N         140.3839  137.8702  161.5005 N.ar    1  UNL1       -0.0814
     30 O         140.1762  137.1480  162.7987 O.2     1  UNL1       -0.3536
     31 C         139.4682  138.0783  163.7386 C.ar    1  UNL1        0.1787
     32 C         139.0032  137.9119  165.1549 C.ar    1  UNL1        0.0698
     33 C         138.3083  139.0426  165.8539 C.ar    1  UNL1        0.1433
     34 F         137.8432  138.8761  167.2702 F       1  UNL1       -0.2041
     35 C         138.0785  140.3397  165.1366 C.ar    1  UNL1        0.0299
     36 C         138.5436  140.5062  163.7203 C.ar    1  UNL1        0.0067
     37 C         139.2384  139.3755  163.0213 C.ar    1  UNL1        0.0540
@<TRIPOS>BOND
     1     9    10    1
     2    10     3    1
     3     3     4   ar
     4     4     5   ar
     5     5     6   ar
     6     6     2    1
     7     2     1    1
     8     1    20    1
     9    20    21    1
    10    21    22    1
    11    22    23    1
    12    23    24    1
    13    24    25    1
    14    25    28    1
    15    28    29   ar
    16    29    30   ar
    17    30    31   ar
    18    31    32   ar
    19    32    33   ar
    20    33    34    1
    21    33    35   ar
    22    35    36   ar
    23    36    37   ar
    24    25    26    1
    25    26    27    1
    26     6     7   ar
    27     7     8   ar
    28    10    11    1
    29    11    12   ar
    30    12    13   ar
    31    13    14   ar
    32    14    15   ar
    33    15    16   ar
    34    16    17   ar
    35    17    18   ar
    36    18    19   ar
    37     8     3   ar
    38    19    11   ar
    39    27    22    1
    40    18    13   ar
    41    37    28   ar
    42    37    31   ar
@<TRIPOS>MOLECULE
*****
 37 42 0 0 0
SMALL
GASTEIGER

@<TRIPOS>ATOM
      1 C         143.8793  140.0341  157.0152 C.3     1  UNL1        0.2068
      2 O         144.2255  139.5029  158.3746 O.3     1  UNL1       -0.4754
      3 C         141.0028  138.9701  161.4697 C.ar    1  UNL1       -0.0135
      4 C         140.7251  138.6394  160.0332 C.ar    1  UNL1       -0.0007
      5 C         141.7994  138.8170  159.0015 C.ar    1  UNL1        0.0366
      6 C         143.1513  139.3253  159.4063 C.ar    1  UNL1        0.1385
      7 C         143.4290  139.6560  160.8428 C.ar    1  UNL1        0.0366
      8 C         142.3547  139.4784  161.8746 C.ar    1  UNL1       -0.0007
      9 C         138.7429  137.9220  162.2073 C.3     1  UNL1        0.0145
     10 C         139.9285  138.7925  162.5014 C.3     1  UNL1        0.0988
     11 C         140.0398  139.4853  163.8272 C.ar    1  UNL1        0.2093
     12 N         139.6307  138.9195  165.1548 N.ar    1  UNL1       -0.2118
     13 C         139.9178  139.9501  166.2062 C.ar    1  UNL1        0.1185
     14 C         139.7209  139.9488  167.6932 C.ar    1  UNL1        0.0223
     15 C         140.1105  141.1501  168.5024 C.ar    1  UNL1        0.0017
     16 C         140.6970  142.3528  167.8246 C.ar    1  UNL1        0.0032
     17 C         140.8939  142.3542  166.3376 C.ar    1  UNL1        0.0391
     18 C         140.5043  141.1528  165.5283 C.ar    1  UNL1        0.1644
     19 O         140.5797  140.8656  164.0581 O.2     1  UNL1       -0.4381
     20 C         143.8444  141.5144  156.7750 C.3     1  UNL1        0.0646
     21 C         142.5284  142.2274  156.6774 C.3     1  UNL1        0.0759
     22 N         141.5917  142.2366  157.8489 N.3     1  UNL1       -0.2725
     23 C         142.0854  142.6595  159.2007 C.3     1  UNL1        0.0725
     24 C         141.1487  142.6687  160.3722 C.3     1  UNL1        0.0234
     25 C         139.7181  142.2550  160.1920 C.3     1  UNL1        0.0464
     26 C         139.2244  141.8322  158.8402 C.3     1  UNL1        0.0234
     27 C         140.1612  141.8230  157.6687 C.3     1  UNL1        0.0725
     28 C         138.7814  142.2642  161.3635 C.ar    1  UNL1        0.1003
     29 N         137.6107  141.3481  161.5635 N.ar    1  UNL1       -0.0814
     30 O         136.9567  141.7089  162.8643 O.2     1  UNL1       -0.3536
     31 C         137.7232  142.8481  163.4682 C.ar    1  UNL1        0.1787
     32 C         137.5400  143.6172  164.7429 C.ar    1  UNL1        0.0698
     33 C         138.4846  144.7295  165.0900 C.ar    1  UNL1        0.1433
     34 F         138.3014  145.4986  166.3648 F       1  UNL1       -0.2041
     35 C         139.6123  145.0727  164.1625 C.ar    1  UNL1        0.0299
     36 C         139.7955  144.3036  162.8878 C.ar    1  UNL1        0.0067
     37 C         138.8510  143.1913  162.5407 C.ar    1  UNL1        0.0540
@<TRIPOS>BOND
     1     9    10    1
     2    10     3    1
     3     3     4   ar
     4     4     5   ar
     5     5     6   ar
     6     6     2    1
     7     2     1    1
     8     1    20    1
     9    20    21    1
    10    21    22    1
    11    22    23    1
    12    23    24    1
    13    24    25    1
    14    25    28    1
    15    28    29   ar
    16    29    30   ar
    17    30    31   ar
    18    31    32   ar
    19    32    33   ar
    20    33    34    1
    21    33    35   ar
    22    35    36   ar
    23    36    37   ar
    24    25    26    1
    25    26    27    1
    26     6     7   ar
    27     7     8   ar
    28    10    11    1
    29    11    12   ar
    30    12    13   ar
    31    13    14   ar
    32    14    15   ar
    33    15    16   ar
    34    16    17   ar
    35    17    18   ar
    36    18    19   ar
    37     8     3   ar
    38    19    11   ar
    39    27    22    1
    40    18    13   ar
    41    37    28   ar
    42    37    31   ar
@<TRIPOS>MOLECULE
*****
 37 42 0 0 0
SMALL
GASTEIGER

@<TRIPOS>ATOM
      1 C         138.4208  142.3890  157.1572 C.3     1  UNL1        0.2068
      2 O         139.1730  143.5208  157.7921 O.3     1  UNL1       -0.4754
      3 C         139.9087  143.5235  162.2314 C.ar    1  UNL1       -0.0135
      4 C         140.6803  144.4535  161.3428 C.ar    1  UNL1       -0.0007
      5 C         140.4350  144.4526  159.8630 C.ar    1  UNL1        0.0366
      6 C         139.4182  143.5217  159.2719 C.ar    1  UNL1        0.1385
      7 C         138.6466  142.5917  160.1606 C.ar    1  UNL1        0.0366
      8 C         138.8919  142.5925  161.6404 C.ar    1  UNL1       -0.0007
      9 C         139.6395  144.6520  164.5560 C.3     1  UNL1        0.0145
     10 C         140.1541  143.5244  163.7113 C.3     1  UNL1        0.0988
     11 C         140.9139  142.3978  164.3464 C.ar    1  UNL1        0.2093
     12 N         140.7854  141.9389  165.7686 N.ar    1  UNL1       -0.2118
     13 C         141.7278  140.7897  165.9719 C.ar    1  UNL1        0.1185
     14 C         142.0303  139.9398  167.1702 C.ar    1  UNL1        0.0223
     15 C         143.0439  138.8383  167.0719 C.ar    1  UNL1        0.0017
     16 C         143.7547  138.5870  165.7752 C.ar    1  UNL1        0.0032
     17 C         143.4521  139.4369  164.5769 C.ar    1  UNL1        0.0391
     18 C         142.4386  140.5384  164.6752 C.ar    1  UNL1        0.1644
     19 O         141.9356  141.5321  163.6706 O.2     1  UNL1       -0.4381
     20 C         139.1500  141.3795  156.3210 C.3     1  UNL1        0.0646
     21 C         140.4121  140.7519  156.8341 C.3     1  UNL1        0.0759
     22 N         140.4355  140.1174  158.1931 N.3     1  UNL1       -0.2725
     23 C         139.4086  139.0866  158.5574 C.3     1  UNL1        0.0725
     24 C         139.4320  138.4521  159.9164 C.3     1  UNL1        0.0234
     25 C         140.4824  138.8486  160.9112 C.3     1  UNL1        0.0464
     26 C         141.5093  139.8794  160.5469 C.3     1  UNL1        0.0234
     27 C         141.4859  140.5139  159.1879 C.3     1  UNL1        0.0725
     28 C         140.5058  138.2141  162.2703 C.ar    1  UNL1        0.1003
     29 N         141.3679  137.0607  162.6901 N.ar    1  UNL1       -0.0814
     30 O         141.0661  136.7555  164.1273 O.2     1  UNL1       -0.3536
     31 C         140.0174  137.7203  164.5958 C.ar    1  UNL1        0.1787
     32 C         139.3331  137.8944  165.9192 C.ar    1  UNL1        0.0698
     33 C         138.3025  138.9700  166.0948 C.ar    1  UNL1        0.1433
     34 F         137.6181  139.1441  167.4182 F       1  UNL1       -0.2041
     35 C         137.9562  139.8715  164.9470 C.ar    1  UNL1        0.0299
     36 C         138.6405  139.6974  163.6236 C.ar    1  UNL1        0.0067
     37 C         139.6711  138.6218  163.4480 C.ar    1  UNL1        0.0540
@<TRIPOS>BOND
     1     9    10    1
     2    10     3    1
     3     3     4   ar
     4     4     5   ar
     5     5     6   ar
     6     6     2    1
     7     2     1    1
     8     1    20    1
     9    20    21    1
    10    21    22    1
    11    22    23    1
    12    23    24    1
    13    24    25    1
    14    25    28    1
    15    28    29   ar
    16    29    30   ar
    17    30    31   ar
    18    31    32   ar
    19    32    33   ar
    20    33    34    1
    21    33    35   ar
    22    35    36   ar
    23    36    37   ar
    24    25    26    1
    25    26    27    1
    26     6     7   ar
    27     7     8   ar
    28    10    11    1
    29    11    12   ar
    30    12    13   ar
    31    13    14   ar
    32    14    15   ar
    33    15    16   ar
    34    16    17   ar
    35    17    18   ar
    36    18    19   ar
    37     8     3   ar
    38    19    11   ar
    39    27    22    1
    40    18    13   ar
    41    37    28   ar
    42    37    31   ar
@<TRIPOS>MOLECULE
*****
 37 42 0 0 0
SMALL
GASTEIGER

@<TRIPOS>ATOM
      1 C         142.1736  144.2505  157.8847 C.3     1  UNL1        0.2068
      2 O         143.3295  143.8661  158.7600 O.3     1  UNL1       -0.4754
      3 C         142.7989  140.7225  161.9358 C.ar    1  UNL1       -0.0135
      4 C         143.3080  142.0841  162.3059 C.ar    1  UNL1       -0.0007
      5 C         143.4848  143.1320  161.2472 C.ar    1  UNL1        0.0366
      6 C         143.1526  142.8182  159.8186 C.ar    1  UNL1        0.1385
      7 C         142.6436  141.4566  159.4485 C.ar    1  UNL1        0.0366
      8 C         142.4667  140.4087  160.5071 C.ar    1  UNL1       -0.0007
      9 C         142.3654  138.2494  162.6036 C.3     1  UNL1        0.0145
     10 C         142.6221  139.6747  162.9945 C.3     1  UNL1        0.0988
     11 C         142.7019  140.0520  164.4441 C.ar    1  UNL1        0.2093
     12 N         142.9889  141.4217  164.9841 N.ar    1  UNL1       -0.2118
     13 C         142.9732  141.3420  166.4819 C.ar    1  UNL1        0.1185
     14 C         143.1907  142.3782  167.5444 C.ar    1  UNL1        0.0223
     15 C         143.1114  141.9956  168.9926 C.ar    1  UNL1        0.0017
     16 C         142.8147  140.5767  169.3782 C.ar    1  UNL1        0.0032
     17 C         142.5971  139.5405  168.3157 C.ar    1  UNL1        0.0391
     18 C         142.6764  139.9232  166.8675 C.ar    1  UNL1        0.1644
     19 O         142.5088  139.1259  165.6081 O.2     1  UNL1       -0.4381
     20 C         141.4574  145.5482  158.1153 C.3     1  UNL1        0.0646
     21 C         140.1609  145.5655  158.8695 C.3     1  UNL1        0.0759
     22 N         140.0385  144.8241  160.1677 N.3     1  UNL1       -0.2725
     23 C         140.5034  145.4627  161.4429 C.3     1  UNL1        0.0725
     24 C         140.3809  144.7213  162.7411 C.3     1  UNL1        0.0234
     25 C         139.7935  143.3412  162.7641 C.3     1  UNL1        0.0464
     26 C         139.3287  142.7027  161.4890 C.3     1  UNL1        0.0234
     27 C         139.4511  143.4441  160.1908 C.3     1  UNL1        0.0725
     28 C         139.6711  142.5997  164.0623 C.ar    1  UNL1        0.1003
     29 N         139.8598  143.1823  165.4316 N.ar    1  UNL1       -0.0814
     30 O         139.6438  142.0882  166.4346 O.2     1  UNL1       -0.3536
     31 C         139.3215  140.8293  165.6853 C.ar    1  UNL1        0.1787
     32 C         139.0149  139.4361  166.1486 C.ar    1  UNL1        0.0698
     33 C         138.7251  138.3590  165.1457 C.ar    1  UNL1        0.1433
     34 F         138.4185  136.9656  165.6090 F       1  UNL1       -0.2041
     35 C         138.7420  138.6751  163.6795 C.ar    1  UNL1        0.0299
     36 C         139.0486  140.0684  163.2162 C.ar    1  UNL1        0.0067
     37 C         139.3384  141.1455  164.2191 C.ar    1  UNL1        0.0540
@<TRIPOS>BOND
     1     9    10    1
     2    10     3    1
     3     3     4   ar
     4     4     5   ar
     5     5     6   ar
     6     6     2    1
     7     2     1    1
     8     1    20    1
     9    20    21    1
    10    21    22    1
    11    22    23    1
    12    23    24    1
    13    24    25    1
    14    25    28    1
    15    28    29   ar
    16    29    30   ar
    17    30    31   ar
    18    31    32   ar
    19    32    33   ar
    20    33    34    1
    21    33    35   ar
    22    35    36   ar
    23    36    37   ar
    24    25    26    1
    25    26    27    1
    26     6     7   ar
    27     7     8   ar
    28    10    11    1
    29    11    12   ar
    30    12    13   ar
    31    13    14   ar
    32    14    15   ar
    33    15    16   ar
    34    16    17   ar
    35    17    18   ar
    36    18    19   ar
    37     8     3   ar
    38    19    11   ar
    39    27    22    1
    40    18    13   ar
    41    37    28   ar
    42    37    31   ar
@<TRIPOS>MOLECULE
*****
 37 42 0 0 0
SMALL
GASTEIGER

@<TRIPOS>ATOM
      1 C         143.1427  138.2132  156.7417 C.3     1  UNL1        0.2068
      2 O         142.9390  137.4825  158.0357 O.3     1  UNL1       -0.4754
      3 C         143.3994  139.6607  161.9463 C.ar    1  UNL1       -0.0135
      4 C         143.0905  138.1929  161.9372 C.ar    1  UNL1       -0.0007
      5 C         142.9370  137.4668  160.6337 C.ar    1  UNL1        0.0366
      6 C         143.0925  138.2086  159.3393 C.ar    1  UNL1        0.1385
      7 C         143.4014  139.6764  159.3484 C.ar    1  UNL1        0.0366
      8 C         143.5549  140.4025  160.6519 C.ar    1  UNL1       -0.0007
      9 C         144.7510  140.1295  164.1151 C.3     1  UNL1        0.0145
     10 C         143.5529  140.3867  163.2499 C.3     1  UNL1        0.0988
     11 C         142.5084  141.3700  163.6884 C.ar    1  UNL1        0.2093
     12 N         141.9854  141.5370  165.0843 N.ar    1  UNL1       -0.2118
     13 C         140.9573  142.6290  165.0665 C.ar    1  UNL1        0.1185
     14 C         140.1089  143.2266  166.1497 C.ar    1  UNL1        0.0223
     15 C         139.1481  144.3321  165.8260 C.ar    1  UNL1        0.0017
     16 C         139.0358  144.8400  164.4191 C.ar    1  UNL1        0.0032
     17 C         139.8841  144.2424  163.3359 C.ar    1  UNL1        0.0391
     18 C         140.8449  143.1369  163.6596 C.ar    1  UNL1        0.1644
     19 O         141.8035  142.3588  162.8079 O.2     1  UNL1       -0.4381
     20 C         141.9903  138.4088  155.8015 C.3     1  UNL1        0.0646
     21 C         141.1164  139.6213  155.9284 C.3     1  UNL1        0.0759
     22 N         140.4835  139.9550  157.2468 N.3     1  UNL1       -0.2725
     23 C         140.6401  141.3292  157.8274 C.3     1  UNL1        0.0725
     24 C         140.0072  141.6629  159.1458 C.3     1  UNL1        0.0234
     25 C         139.2177  140.6224  159.8836 C.3     1  UNL1        0.0464
     26 C         139.0612  139.2483  159.3029 C.3     1  UNL1        0.0234
     27 C         139.6941  138.9146  157.9845 C.3     1  UNL1        0.0725
     28 C         138.5849  140.9561  161.2020 C.ar    1  UNL1        0.1003
     29 N         137.5751  142.0379  161.4465 N.ar    1  UNL1       -0.0814
     30 O         137.2168  142.0169  162.9029 O.2     1  UNL1       -0.3536
     31 C         138.0052  140.9221  163.5585 C.ar    1  UNL1        0.1787
     32 C         138.0624  140.4375  164.9769 C.ar    1  UNL1        0.0698
     33 C         138.9652  139.2972  165.3440 C.ar    1  UNL1        0.1433
     34 F         139.0224  138.8126  166.7624 F       1  UNL1       -0.2041
     35 C         139.8107  138.6415  164.2927 C.ar    1  UNL1        0.0299
     36 C         139.7535  139.1261  162.8743 C.ar    1  UNL1        0.0067
     37 C         138.8507  140.2664  162.5072 C.ar    1  UNL1        0.0540
@<TRIPOS>BOND
     1     9    10    1
     2    10     3    1
     3     3     4   ar
     4     4     5   ar
     5     5     6   ar
     6     6     2    1
     7     2     1    1
     8     1    20    1
     9    20    21    1
    10    21    22    1
    11    22    23    1
    12    23    24    1
    13    24    25    1
    14    25    28    1
    15    28    29   ar
    16    29    30   ar
    17    30    31   ar
    18    31    32   ar
    19    32    33   ar
    20    33    34    1
    21    33    35   ar
    22    35    36   ar
    23    36    37   ar
    24    25    26    1
    25    26    27    1
    26     6     7   ar
    27     7     8   ar
    28    10    11    1
    29    11    12   ar
    30    12    13   ar
    31    13    14   ar
    32    14    15   ar
    33    15    16   ar
    34    16    17   ar
    35    17    18   ar
    36    18    19   ar
    37     8     3   ar
    38    19    11   ar
    39    27    22    1
    40    18    13   ar
    41    37    28   ar
    42    37    31   ar
@<TRIPOS>MOLECULE
*****
 37 42 0 0 0
SMALL
GASTEIGER

@<TRIPOS>ATOM
      1 C         142.9637  144.0103  157.8950 C.3     1  UNL1        0.2068
      2 O         141.4726  143.8496  157.9226 O.3     1  UNL1       -0.4754
      3 C         139.3458  143.2554  161.8435 C.ar    1  UNL1       -0.0135
      4 C         140.7475  143.7892  161.8239 C.ar    1  UNL1       -0.0007
      5 C         141.4564  143.9873  160.5169 C.ar    1  UNL1        0.0366
      6 C         140.7636  143.6515  159.2296 C.ar    1  UNL1        0.1385
      7 C         139.3619  143.1178  159.2491 C.ar    1  UNL1        0.0366
      8 C         138.6530  142.9197  160.5561 C.ar    1  UNL1       -0.0007
      9 C         137.9705  144.2192  163.8258 C.3     1  UNL1        0.0145
     10 C         138.6369  143.0574  163.1505 C.3     1  UNL1        0.0988
     11 C         138.5944  141.6976  163.7822 C.ar    1  UNL1        0.2093
     12 N         139.1022  140.4253  163.1713 N.ar    1  UNL1       -0.2118
     13 C         138.8582  139.3127  164.1473 C.ar    1  UNL1        0.1185
     14 C         139.1507  137.8427  164.0873 C.ar    1  UNL1        0.0223
     15 C         138.7845  136.9574  165.2415 C.ar    1  UNL1        0.0017
     16 C         138.1258  137.5422  166.4557 C.ar    1  UNL1        0.0032
     17 C         137.8334  139.0122  166.5157 C.ar    1  UNL1        0.0391
     18 C         138.1995  139.8975  165.3615 C.ar    1  UNL1        0.1644
     19 O         138.0365  141.3714  165.1359 O.2     1  UNL1       -0.4381
     20 C         143.8456  142.8041  157.7636 C.3     1  UNL1        0.0646
     21 C         144.8146  142.4610  158.8560 C.3     1  UNL1        0.0759
     22 N         144.3178  141.8635  160.1390 N.3     1  UNL1       -0.2725
     23 C         143.3739  140.6981  160.1076 C.3     1  UNL1        0.0725
     24 C         142.8770  140.1006  161.3906 C.3     1  UNL1        0.0234
     25 C         143.3240  140.6685  162.7051 C.3     1  UNL1        0.0464
     26 C         144.2679  141.8338  162.7364 C.3     1  UNL1        0.0234
     27 C         144.7648  142.4313  161.4534 C.3     1  UNL1        0.0725
     28 C         142.8271  140.0710  163.9881 C.ar    1  UNL1        0.1003
     29 N         142.9428  138.6314  164.3932 N.ar    1  UNL1       -0.0814
     30 O         142.3145  138.4789  165.7467 O.2     1  UNL1       -0.3536
     31 C         141.8105  139.8243  166.1781 C.ar    1  UNL1        0.1787
     32 C         141.1040  140.2804  167.4201 C.ar    1  UNL1        0.0698
     33 C         140.7144  141.7206  167.5753 C.ar    1  UNL1        0.1433
     34 F         140.0079  142.1768  168.8174 F       1  UNL1       -0.2041
     35 C         141.0313  142.7045  166.4884 C.ar    1  UNL1        0.0299
     36 C         141.7377  142.2484  165.2463 C.ar    1  UNL1        0.0067
     37 C         142.1274  140.8082  165.0912 C.ar    1  UNL1        0.0540
@<TRIPOS>BOND
     1     9    10    1
     2    10     3    1
     3     3     4   ar
     4     4     5   ar
     5     5     6   ar
     6     6     2    1
     7     2     1    1
     8     1    20    1
     9    20    21    1
    10    21    22    1
    11    22    23    1
    12    23    24    1
    13    24    25    1
    14    25    28    1
    15    28    29   ar
    16    29    30   ar
    17    30    31   ar
    18    31    32   ar
    19    32    33   ar
    20    33    34    1
    21    33    35   ar
    22    35    36   ar
    23    36    37   ar
    24    25    26    1
    25    26    27    1
    26     6     7   ar
    27     7     8   ar
    28    10    11    1
    29    11    12   ar
    30    12    13   ar
    31    13    14   ar
    32    14    15   ar
    33    15    16   ar
    34    16    17   ar
    35    17    18   ar
    36    18    19   ar
    37     8     3   ar
    38    19    11   ar
    39    27    22    1
    40    18    13   ar
    41    37    28   ar
    42    37    31   ar
@<TRIPOS>MOLECULE
*****
 37 42 0 0 0
SMALL
GASTEIGER

@<TRIPOS>ATOM
      1 C         139.7729  144.8474  156.7512 C.3     1  UNL1        0.2068
      2 O         139.8585  143.3618  156.5631 O.3     1  UNL1       -0.4754
      3 C         139.3190  140.6131  160.0850 C.ar    1  UNL1       -0.0135
      4 C         140.3073  140.2697  159.0101 C.ar    1  UNL1       -0.0007
      5 C         140.4871  141.1860  157.8361 C.ar    1  UNL1        0.0366
      6 C         139.6787  142.4455  157.7371 C.ar    1  UNL1        0.1385
      7 C         138.6904  142.7889  158.8120 C.ar    1  UNL1        0.0366
      8 C         138.5106  141.8727  159.9860 C.ar    1  UNL1       -0.0007
      9 C         137.8477  138.9560  161.4412 C.3     1  UNL1        0.0145
     10 C         139.1393  139.6968  161.2589 C.3     1  UNL1        0.0988
     11 C         140.2509  139.5213  162.2506 C.ar    1  UNL1        0.2093
     12 N         140.1179  138.9547  163.6330 N.ar    1  UNL1       -0.2118
     13 C         141.4756  138.9648  164.2707 C.ar    1  UNL1        0.1185
     14 C         141.9523  138.5263  165.6237 C.ar    1  UNL1        0.0223
     15 C         143.4011  138.6607  165.9883 C.ar    1  UNL1        0.0017
     16 C         144.3731  139.2335  164.9998 C.ar    1  UNL1        0.0032
     17 C         143.8964  139.6719  163.6469 C.ar    1  UNL1        0.0391
     18 C         142.4476  139.5376  163.2823 C.ar    1  UNL1        0.1644
     19 O         141.6908  139.8815  162.0338 O.2     1  UNL1       -0.4381
     20 C         141.0180  145.6826  156.7016 C.3     1  UNL1        0.0646
     21 C         142.0621  145.5363  157.7685 C.3     1  UNL1        0.0759
     22 N         141.6974  144.9482  159.0993 N.3     1  UNL1       -0.2725
     23 C         142.3934  143.7133  159.5898 C.3     1  UNL1        0.0725
     24 C         142.0287  143.1252  160.9206 C.3     1  UNL1        0.0234
     25 C         140.9678  143.7721  161.7610 C.3     1  UNL1        0.0464
     26 C         140.2718  145.0069  161.2706 C.3     1  UNL1        0.0234
     27 C         140.6366  145.5950  159.9397 C.3     1  UNL1        0.0725
     28 C         140.6030  143.1840  163.0919 C.ar    1  UNL1        0.1003
     29 N         139.2375  142.7232  163.5077 N.ar    1  UNL1       -0.0814
     30 O         139.3303  142.2079  164.9133 O.2     1  UNL1       -0.3536
     31 C         140.7532  142.3503  165.3663 C.ar    1  UNL1        0.1787
     32 C         141.4343  142.0085  166.6583 C.ar    1  UNL1        0.0698
     33 C         142.9019  142.2701  166.8245 C.ar    1  UNL1        0.1433
     34 F         143.5830  141.9283  168.1166 F       1  UNL1       -0.2041
     35 C         143.6884  142.8734  165.6988 C.ar    1  UNL1        0.0299
     36 C         143.0074  143.2151  164.4068 C.ar    1  UNL1        0.0067
     37 C         141.5398  142.9536  164.2405 C.ar    1  UNL1        0.0540
@<TRIPOS>BOND
     1     9    10    1
     2    10     3    1
     3     3     4   ar
     4     4     5   ar
     5     5     6   ar
     6     6     2    1
     7     2     1    1
     8     1    20    1
     9    20    21    1
    10    21    22    1
    11    22    23    1
    12    23    24    1
    13    24    25    1
    14    25    28    1
    15    28    29   ar
    16    29    30   ar
    17    30    31   ar
    18    31    32   ar
    19    32    33   ar
    20    33    34    1
    21    33    35   ar
    22    35    36   ar
    23    36    37   ar
    24    25    26    1
    25    26    27    1
    26     6     7   ar
    27     7     8   ar
    28    10    11    1
    29    11    12   ar
    30    12    13   ar
    31    13    14   ar
    32    14    15   ar
    33    15    16   ar
    34    16    17   ar
    35    17    18   ar
    36    18    19   ar
    37     8     3   ar
    38    19    11   ar
    39    27    22    1
    40    18    13   ar
    41    37    28   ar
    42    37    31   ar
