@<TRIPOS>MOLECULE
*****
 27 30 0 0 0
SMALL
GASTEIGER

@<TRIPOS>ATOM
      1 C         142.4961  138.3999  162.9165 C.3     1  UNL1        0.1123
      2 N         141.8248  141.2332  165.4830 N.am    1  UNL1       -0.2414
      3 C         141.4910  141.9244  164.1943 C.3     1  UNL1        0.1212
      4 C         141.7018  140.9472  163.0760 C.3     1  UNL1        0.1169
      5 N         142.1659  139.6520  163.6736 N.am    1  UNL1       -0.2606
      6 C         142.2420  139.8288  165.1612 C.2     1  UNL1        0.3111
      7 O         142.6616  138.7845  166.1528 O.2     1  UNL1       -0.2520
      8 C         144.1182  142.4834  169.9750 C.3     1  UNL1        0.0311
      9 C         142.9007  142.4650  169.0990 C.ar    1  UNL1       -0.0206
     10 C         141.6123  143.0534  169.5930 C.ar    1  UNL1       -0.0042
     11 C         140.3949  143.0350  168.7170 C.ar    1  UNL1        0.0010
     12 C         140.4656  142.4283  167.3470 C.ar    1  UNL1        0.0149
     13 C         141.7540  141.8399  166.8530 C.ar    1  UNL1        0.0550
     14 C         142.9715  141.8583  167.7290 C.ar    1  UNL1        0.0107
     15 C         141.4265  137.3843  162.6437 C.3     1  UNL1        0.0939
     16 N         140.1349  137.8072  162.0088 N.3     1  UNL1       -0.2701
     17 C         140.0900  138.1328  160.5452 C.3     1  UNL1        0.0897
     18 C         138.8884  137.9044  162.8375 C.3     1  UNL1        0.0721
     19 C         138.4775  139.2232  163.4223 C.3     1  UNL1        0.0147
     20 C         138.0269  140.4279  162.6505 C.3     1  UNL1        0.0013
     21 C         137.7160  141.5180  163.6328 C.3     1  UNL1        0.0000
     22 C         137.9745  140.9871  165.0117 C.3     1  UNL1        0.0000
     23 C         138.4251  139.7824  165.7835 C.3     1  UNL1        0.0000
     24 C         138.7360  138.6922  164.8012 C.3     1  UNL1        0.0013
     25 C         138.4452  139.5688  164.8816 C.3     1  UNL1        0.0013
     26 C         138.6284  139.2749  166.3411 C.3     1  UNL1        0.0000
     27 C         138.9203  138.2513  165.4188 C.3     1  UNL1        0.0000
@<TRIPOS>BOND
     1     8     9    1
     2     9    10   ar
     3    10    11   ar
     4    11    12   ar
     5    12    13   ar
     6    13     2    1
     7     2     3    1
     8     3     4    1
     9     4     5    1
    10     5     1    1
    11     1    15    1
    12    15    16    1
    13    16    17    1
    14    16    18    1
    15    19    18    1
    16    19    20    1
    17    20    21    1
    18    22    21    1
    19    22    23    1
    20    23    24    1
    21    22    25    1
    22    25    26    1
    23    25    27    1
    24     5     6   am
    25     6     7    2
    26    13    14   ar
    27    14     9   ar
    28     6     2   am
    29    24    19    1
    30    25    19    1
@<TRIPOS>MOLECULE
*****
 27 30 0 0 0
SMALL
GASTEIGER

@<TRIPOS>ATOM
      1 C         143.1960  139.2048  162.9491 C.3     1  UNL1        0.1123
      2 N         141.6117  141.1526  165.9090 N.am    1  UNL1       -0.2414
      3 C         141.7541  142.2423  164.8881 C.3     1  UNL1        0.1212
      4 C         142.3649  141.6452  163.6550 C.3     1  UNL1        0.1169
      5 N         142.6000  140.1866  163.9139 N.am    1  UNL1       -0.2606
      6 C         142.1345  139.8821  165.3069 C.2     1  UNL1        0.3111
      7 O         142.1832  138.5424  165.9797 O.2     1  UNL1       -0.2520
      8 C         140.3504  144.1730  169.9447 C.3     1  UNL1        0.0311
      9 C         140.4152  142.8166  169.3075 C.ar    1  UNL1       -0.0206
     10 C         139.9141  141.6140  170.0509 C.ar    1  UNL1       -0.0042
     11 C         139.9788  140.2577  169.4137 C.ar    1  UNL1        0.0010
     12 C         140.5446  140.1038  168.0331 C.ar    1  UNL1        0.0149
     13 C         141.0458  141.3064  167.2897 C.ar    1  UNL1        0.0550
     14 C         140.9810  142.6628  167.9269 C.ar    1  UNL1        0.0107
     15 C         142.4434  137.9591  162.5856 C.3     1  UNL1        0.0939
     16 N         141.0752  138.0595  161.9790 N.3     1  UNL1       -0.2701
     17 C         140.9207  138.4368  160.5355 C.3     1  UNL1        0.0897
     18 C         139.8616  137.7825  162.8159 C.3     1  UNL1        0.0721
     19 C         139.2032  138.8968  163.5741 C.3     1  UNL1        0.0147
     20 C         139.0289  140.3072  163.0943 C.3     1  UNL1        0.0013
     21 C         138.3215  141.0783  164.1689 C.3     1  UNL1        0.0000
     22 C         138.0585  140.1445  165.3130 C.3     1  UNL1        0.0000
     23 C         138.2328  138.7341  165.7928 C.3     1  UNL1        0.0000
     24 C         138.9403  137.9629  164.7182 C.3     1  UNL1        0.0013
     25 C         138.6035  138.7962  164.9454 C.3     1  UNL1        0.0013
     26 C         138.2302  138.0700  166.2037 C.3     1  UNL1        0.0000
     27 C         138.8944  137.3459  165.1947 C.3     1  UNL1        0.0000
@<TRIPOS>BOND
     1     8     9    1
     2     9    10   ar
     3    10    11   ar
     4    11    12   ar
     5    12    13   ar
     6    13     2    1
     7     2     3    1
     8     3     4    1
     9     4     5    1
    10     5     1    1
    11     1    15    1
    12    15    16    1
    13    16    17    1
    14    16    18    1
    15    19    18    1
    16    19    20    1
    17    20    21    1
    18    22    21    1
    19    22    23    1
    20    23    24    1
    21    22    25    1
    22    25    26    1
    23    25    27    1
    24     5     6   am
    25     6     7    2
    26    13    14   ar
    27    14     9   ar
    28     6     2   am
    29    24    19    1
    30    25    19    1
@<TRIPOS>MOLECULE
*****
 27 30 0 0 0
SMALL
GASTEIGER

@<TRIPOS>ATOM
      1 C         142.6937  142.3429  162.0883 C.3     1  UNL1        0.1123
      2 N         140.6226  141.4777  165.2548 N.am    1  UNL1       -0.2414
      3 C         139.7478  140.9155  164.1738 C.3     1  UNL1        0.1212
      4 C         140.4171  141.1712  162.8560 C.3     1  UNL1        0.1169
      5 N         141.7056  141.8914  163.1227 N.am    1  UNL1       -0.2606
      6 C         141.8326  142.0808  164.6051 C.2     1  UNL1        0.3111
      7 O         142.9699  142.7550  165.3136 O.2     1  UNL1       -0.2520
      8 C         140.5353  143.8465  169.8789 C.3     1  UNL1        0.0311
      9 C         140.2938  142.6273  169.0391 C.ar    1  UNL1       -0.0206
     10 C         139.7672  141.3733  169.6716 C.ar    1  UNL1       -0.0042
     11 C         139.5256  140.1541  168.8318 C.ar    1  UNL1        0.0010
     12 C         139.8108  140.1888  167.3596 C.ar    1  UNL1        0.0149
     13 C         140.3374  141.4429  166.7271 C.ar    1  UNL1        0.0550
     14 C         140.5789  142.6621  167.5669 C.ar    1  UNL1        0.0107
     15 C         143.9910  141.6091  161.9195 C.3     1  UNL1        0.0939
     16 N         143.9889  140.1671  161.5063 N.3     1  UNL1       -0.2701
     17 C         143.7968  139.8003  160.0646 C.3     1  UNL1        0.0897
     18 C         144.1789  139.0920  162.5349 C.3     1  UNL1        0.0721
     19 C         142.9861  138.4667  163.1955 C.3     1  UNL1        0.0147
     20 C         141.8533  137.7747  162.4970 C.3     1  UNL1        0.0013
     21 C         140.8838  137.3040  163.5403 C.3     1  UNL1        0.0000
     22 C         141.4174  137.7052  164.8836 C.3     1  UNL1        0.0000
     23 C         142.5502  138.3973  165.5821 C.3     1  UNL1        0.0000
     24 C         143.5198  138.8680  164.5387 C.3     1  UNL1        0.0013
     25 C         142.7167  138.4238  164.6704 C.3     1  UNL1        0.0013
     26 C         143.0351  138.7104  166.1080 C.3     1  UNL1        0.0000
     27 C         143.9454  139.1523  165.1284 C.3     1  UNL1        0.0000
@<TRIPOS>BOND
     1     8     9    1
     2     9    10   ar
     3    10    11   ar
     4    11    12   ar
     5    12    13   ar
     6    13     2    1
     7     2     3    1
     8     3     4    1
     9     4     5    1
    10     5     1    1
    11     1    15    1
    12    15    16    1
    13    16    17    1
    14    16    18    1
    15    19    18    1
    16    19    20    1
    17    20    21    1
    18    22    21    1
    19    22    23    1
    20    23    24    1
    21    22    25    1
    22    25    26    1
    23    25    27    1
    24     5     6   am
    25     6     7    2
    26    13    14   ar
    27    14     9   ar
    28     6     2   am
    29    24    19    1
    30    25    19    1
@<TRIPOS>MOLECULE
*****
 27 30 0 0 0
SMALL
GASTEIGER

@<TRIPOS>ATOM
      1 C         142.7935  142.6711  161.9078 C.3     1  UNL1        0.1123
      2 N         141.7384  142.1023  165.5994 N.am    1  UNL1       -0.2414
      3 C         140.9373  141.0428  164.9025 C.3     1  UNL1        0.1212
      4 C         141.2350  141.1270  163.4348 C.3     1  UNL1        0.1169
      5 N         142.2202  142.2384  163.2246 N.am    1  UNL1       -0.2606
      6 C         142.5313  142.8412  164.5624 C.2     1  UNL1        0.3111
      7 O         143.4704  143.9824  164.8183 O.2     1  UNL1       -0.2520
      8 C         144.3177  142.4716  170.0952 C.3     1  UNL1        0.0311
      9 C         143.0351  142.5596  169.3223 C.ar    1  UNL1       -0.0206
     10 C         141.7596  142.9203  170.0244 C.ar    1  UNL1       -0.0042
     11 C         140.4771  143.0084  169.2516 C.ar    1  UNL1        0.0010
     12 C         140.4700  142.7357  167.7766 C.ar    1  UNL1        0.0149
     13 C         141.7455  142.3750  167.0745 C.ar    1  UNL1        0.0550
     14 C         143.0280  142.2869  167.8474 C.ar    1  UNL1        0.0107
     15 C         142.2271  143.8658  161.1993 C.3     1  UNL1        0.0939
     16 N         140.8088  143.8458  160.7114 N.3     1  UNL1       -0.2701
     17 C         140.4707  143.1686  159.4163 C.3     1  UNL1        0.0897
     18 C         139.7287  144.5029  161.5186 C.3     1  UNL1        0.0721
     19 C         138.8663  143.6795  162.4287 C.3     1  UNL1        0.0147
     20 C         138.0250  142.5058  162.0229 C.3     1  UNL1        0.0013
     21 C         137.3326  141.9862  163.2479 C.3     1  UNL1        0.0000
     22 C         137.7461  142.8386  164.4108 C.3     1  UNL1        0.0000
     23 C         138.5875  144.0122  164.8167 C.3     1  UNL1        0.0000
     24 C         139.2799  144.5320  163.5916 C.3     1  UNL1        0.0013
     25 C         138.6940  143.8851  163.9045 C.3     1  UNL1        0.0013
     26 C         138.9515  144.5817  165.2078 C.3     1  UNL1        0.0000
     27 C         139.6015  145.0696  164.0577 C.3     1  UNL1        0.0000
@<TRIPOS>BOND
     1     8     9    1
     2     9    10   ar
     3    10    11   ar
     4    11    12   ar
     5    12    13   ar
     6    13     2    1
     7     2     3    1
     8     3     4    1
     9     4     5    1
    10     5     1    1
    11     1    15    1
    12    15    16    1
    13    16    17    1
    14    16    18    1
    15    19    18    1
    16    19    20    1
    17    20    21    1
    18    22    21    1
    19    22    23    1
    20    23    24    1
    21    22    25    1
    22    25    26    1
    23    25    27    1
    24     5     6   am
    25     6     7    2
    26    13    14   ar
    27    14     9   ar
    28     6     2   am
    29    24    19    1
    30    25    19    1
@<TRIPOS>MOLECULE
*****
 27 30 0 0 0
SMALL
GASTEIGER

@<TRIPOS>ATOM
      1 C         139.0893  139.2895  162.5010 C.3     1  UNL1        0.1123
      2 N         140.4862  140.7993  165.7925 N.am    1  UNL1       -0.2414
      3 C         141.7211  140.7665  164.9417 C.3     1  UNL1        0.1212
      4 C         141.3481  140.1969  163.6051 C.3     1  UNL1        0.1169
      5 N         139.8827  139.8777  163.6299 N.am    1  UNL1       -0.2606
      6 C         139.3500  140.2500  164.9817 C.2     1  UNL1        0.3111
      7 O         137.9304  140.0994  165.4421 O.2     1  UNL1       -0.2520
      8 C         139.8470  139.8532  170.8617 C.3     1  UNL1        0.0311
      9 C         140.0827  140.8214  169.7405 C.ar    1  UNL1       -0.0206
     10 C         140.2343  142.2848  170.0328 C.ar    1  UNL1       -0.0042
     11 C         140.4700  143.2531  168.9116 C.ar    1  UNL1        0.0010
     12 C         140.5539  142.7579  167.4982 C.ar    1  UNL1        0.0149
     13 C         140.4022  141.2945  167.2060 C.ar    1  UNL1        0.0550
     14 C         140.1666  140.3263  168.3271 C.ar    1  UNL1        0.0107
     15 C         137.8888  140.0153  161.9699 C.3     1  UNL1        0.0939
     16 N         138.0099  141.4444  161.5306 N.3     1  UNL1       -0.2701
     17 C         138.3157  141.7651  160.0976 C.3     1  UNL1        0.0897
     18 C         137.8251  142.5527  162.5244 C.3     1  UNL1        0.0721
     19 C         139.0111  143.3369  163.0024 C.3     1  UNL1        0.0147
     20 C         140.3624  143.3758  162.3525 C.3     1  UNL1        0.0013
     21 C         141.2404  144.2828  163.1627 C.3     1  UNL1        0.0000
     22 C         140.4317  144.8044  164.3133 C.3     1  UNL1        0.0000
     23 C         139.0804  144.7655  164.9632 C.3     1  UNL1        0.0000
     24 C         138.2023  143.8585  164.1530 C.3     1  UNL1        0.0013
     25 C         139.0539  144.2198  164.2142 C.3     1  UNL1        0.0013
     26 C         138.4634  144.8697  165.4304 C.3     1  UNL1        0.0000
     27 C         137.6390  144.0181  164.6697 C.3     1  UNL1        0.0000
@<TRIPOS>BOND
     1     8     9    1
     2     9    10   ar
     3    10    11   ar
     4    11    12   ar
     5    12    13   ar
     6    13     2    1
     7     2     3    1
     8     3     4    1
     9     4     5    1
    10     5     1    1
    11     1    15    1
    12    15    16    1
    13    16    17    1
    14    16    18    1
    15    19    18    1
    16    19    20    1
    17    20    21    1
    18    22    21    1
    19    22    23    1
    20    23    24    1
    21    22    25    1
    22    25    26    1
    23    25    27    1
    24     5     6   am
    25     6     7    2
    26    13    14   ar
    27    14     9   ar
    28     6     2   am
    29    24    19    1
    30    25    19    1
@<TRIPOS>MOLECULE
*****
 27 30 0 0 0
SMALL
GASTEIGER

@<TRIPOS>ATOM
      1 C         138.6790  139.7888  163.2105 C.3     1  UNL1        0.1123
      2 N         140.9480  141.6923  165.7192 N.am    1  UNL1       -0.2414
      3 C         141.4888  142.1832  164.4091 C.3     1  UNL1        0.1212
      4 C         140.7047  141.5299  163.3099 C.3     1  UNL1        0.1169
      5 N         139.6792  140.6352  163.9407 N.am    1  UNL1       -0.2606
      6 C         139.8296  140.7355  165.4297 C.2     1  UNL1        0.3111
      7 O         139.0062  140.0070  166.4500 O.2     1  UNL1       -0.2520
      8 C         139.9893  143.4514  170.5137 C.3     1  UNL1        0.0311
      9 C         140.9599  142.9681  169.4772 C.ar    1  UNL1       -0.0206
     10 C         142.4219  142.8809  169.8015 C.ar    1  UNL1       -0.0042
     11 C         143.3925  142.3976  168.7650 C.ar    1  UNL1        0.0010
     12 C         142.9013  142.0014  167.4043 C.ar    1  UNL1        0.0149
     13 C         141.4393  142.0885  167.0800 C.ar    1  UNL1        0.0550
     14 C         140.4687  142.5719  168.1165 C.ar    1  UNL1        0.0107
     15 C         139.0169  138.3729  162.8481 C.3     1  UNL1        0.0939
     16 N         140.2899  138.0696  162.1151 N.3     1  UNL1       -0.2701
     17 C         140.3820  138.3161  160.6383 C.3     1  UNL1        0.0897
     18 C         141.4709  137.5200  162.8588 C.3     1  UNL1        0.0721
     19 C         142.6108  138.4223  163.2284 C.3     1  UNL1        0.0147
     20 C         143.4808  139.1812  162.2707 C.3     1  UNL1        0.0013
     21 C         144.4884  139.9520  163.0710 C.3     1  UNL1        0.0000
     22 C         144.2412  139.6695  164.5233 C.3     1  UNL1        0.0000
     23 C         143.3712  138.9105  165.4809 C.3     1  UNL1        0.0000
     24 C         142.3635  138.1397  164.6807 C.3     1  UNL1        0.0013
     25 C         143.0807  138.7240  164.6205 C.3     1  UNL1        0.0013
     26 C         143.0351  138.6024  166.1149 C.3     1  UNL1        0.0000
     27 C         142.0890  137.8787  165.3635 C.3     1  UNL1        0.0000
@<TRIPOS>BOND
     1     8     9    1
     2     9    10   ar
     3    10    11   ar
     4    11    12   ar
     5    12    13   ar
     6    13     2    1
     7     2     3    1
     8     3     4    1
     9     4     5    1
    10     5     1    1
    11     1    15    1
    12    15    16    1
    13    16    17    1
    14    16    18    1
    15    19    18    1
    16    19    20    1
    17    20    21    1
    18    22    21    1
    19    22    23    1
    20    23    24    1
    21    22    25    1
    22    25    26    1
    23    25    27    1
    24     5     6   am
    25     6     7    2
    26    13    14   ar
    27    14     9   ar
    28     6     2   am
    29    24    19    1
    30    25    19    1
@<TRIPOS>MOLECULE
*****
 27 30 0 0 0
SMALL
GASTEIGER

@<TRIPOS>ATOM
      1 C         140.9567  142.0565  161.7804 C.3     1  UNL1        0.1123
      2 N         141.6472  141.7029  165.5834 N.am    1  UNL1       -0.2414
      3 C         142.0829  140.3575  165.0834 C.3     1  UNL1        0.1212
      4 C         141.8773  140.3262  163.5979 C.3     1  UNL1        0.1169
      5 N         141.3145  141.6523  163.1798 N.am    1  UNL1       -0.2606
      6 C         141.1723  142.5031  164.4069 C.2     1  UNL1        0.3111
      7 O         140.6474  143.9076  164.4500 O.2     1  UNL1       -0.2520
      8 C         144.2726  142.4981  169.9965 C.3     1  UNL1        0.0311
      9 C         142.9933  142.5643  169.2161 C.ar    1  UNL1       -0.0206
     10 C         141.7474  143.0942  169.8617 C.ar    1  UNL1       -0.0042
     11 C         140.4682  143.1604  169.0813 C.ar    1  UNL1        0.0010
     12 C         140.4347  142.6966  167.6552 C.ar    1  UNL1        0.0149
     13 C         141.6806  142.1667  167.0096 C.ar    1  UNL1        0.0550
     14 C         142.9599  142.1006  167.7900 C.ar    1  UNL1        0.0107
     15 C         139.5622  142.5096  161.4638 C.3     1  UNL1        0.0939
     16 N         138.4994  141.4999  161.1461 N.3     1  UNL1       -0.2701
     17 C         138.2534  141.0923  159.7236 C.3     1  UNL1        0.0897
     18 C         137.6827  140.8978  162.2508 C.3     1  UNL1        0.0721
     19 C         138.1767  139.6771  162.9691 C.3     1  UNL1        0.0147
     20 C         138.5279  138.3634  162.3361 C.3     1  UNL1        0.0013
     21 C         138.9745  137.4302  163.4222 C.3     1  UNL1        0.0000
     22 C         138.8993  138.1672  164.7265 C.3     1  UNL1        0.0000
     23 C         138.5481  139.4810  165.3595 C.3     1  UNL1        0.0000
     24 C         138.1015  140.4142  164.2733 C.3     1  UNL1        0.0013
     25 C         138.4062  139.5559  164.4465 C.3     1  UNL1        0.0013
     26 C         138.4179  140.0698  165.8556 C.3     1  UNL1        0.0000
     27 C         137.9986  140.9460  164.8358 C.3     1  UNL1        0.0000
@<TRIPOS>BOND
     1     8     9    1
     2     9    10   ar
     3    10    11   ar
     4    11    12   ar
     5    12    13   ar
     6    13     2    1
     7     2     3    1
     8     3     4    1
     9     4     5    1
    10     5     1    1
    11     1    15    1
    12    15    16    1
    13    16    17    1
    14    16    18    1
    15    19    18    1
    16    19    20    1
    17    20    21    1
    18    22    21    1
    19    22    23    1
    20    23    24    1
    21    22    25    1
    22    25    26    1
    23    25    27    1
    24     5     6   am
    25     6     7    2
    26    13    14   ar
    27    14     9   ar
    28     6     2   am
    29    24    19    1
    30    25    19    1
@<TRIPOS>MOLECULE
*****
 27 30 0 0 0
SMALL
GASTEIGER

@<TRIPOS>ATOM
      1 C         139.6844  140.1172  162.1167 C.3     1  UNL1        0.1123
      2 N         140.5364  140.8234  165.8369 N.am    1  UNL1       -0.2414
      3 C         141.9085  140.6886  165.2459 C.3     1  UNL1        0.1212
      4 C         141.7563  140.4076  163.7804 C.3     1  UNL1        0.1169
      5 N         140.2902  140.3688  163.4656 N.am    1  UNL1       -0.2606
      6 C         139.5363  140.6258  164.7366 C.2     1  UNL1        0.3111
      7 O         138.0442  140.6763  164.8819 O.2     1  UNL1       -0.2520
      8 C         140.5967  144.0533  169.9069 C.3     1  UNL1        0.0311
      9 C         140.2502  142.7212  169.3107 C.ar    1  UNL1       -0.0206
     10 C         139.5874  141.6719  170.1531 C.ar    1  UNL1       -0.0042
     11 C         139.2409  140.3399  169.5568 C.ar    1  UNL1        0.0010
     12 C         139.5572  140.0570  168.1182 C.ar    1  UNL1        0.0149
     13 C         140.2200  141.1063  167.2757 C.ar    1  UNL1        0.0550
     14 C         140.5665  142.4383  167.8720 C.ar    1  UNL1        0.0107
     15 C         138.5939  141.0115  161.6055 C.3     1  UNL1        0.0939
     16 N         138.9263  142.1510  160.6885 N.3     1  UNL1       -0.2701
     17 C         138.8450  141.9658  159.2022 C.3     1  UNL1        0.0897
     18 C         139.3401  143.4756  161.2578 C.3     1  UNL1        0.0721
     19 C         139.0289  143.8078  162.6871 C.3     1  UNL1        0.0147
     20 C         137.6593  143.9146  163.2894 C.3     1  UNL1        0.0013
     21 C         137.8167  144.2644  164.7395 C.3     1  UNL1        0.0000
     22 C         139.2835  144.3738  165.0335 C.3     1  UNL1        0.0000
     23 C         140.6532  144.2670  164.4312 C.3     1  UNL1        0.0000
     24 C         140.4958  143.9172  162.9810 C.3     1  UNL1        0.0013
     25 C         140.0328  144.0916  163.7650 C.3     1  UNL1        0.0013
     26 C         141.4233  144.2570  164.3026 C.3     1  UNL1        0.0000
     27 C         141.2756  143.9286  162.9410 C.3     1  UNL1        0.0000
@<TRIPOS>BOND
     1     8     9    1
     2     9    10   ar
     3    10    11   ar
     4    11    12   ar
     5    12    13   ar
     6    13     2    1
     7     2     3    1
     8     3     4    1
     9     4     5    1
    10     5     1    1
    11     1    15    1
    12    15    16    1
    13    16    17    1
    14    16    18    1
    15    19    18    1
    16    19    20    1
    17    20    21    1
    18    22    21    1
    19    22    23    1
    20    23    24    1
    21    22    25    1
    22    25    26    1
    23    25    27    1
    24     5     6   am
    25     6     7    2
    26    13    14   ar
    27    14     9   ar
    28     6     2   am
    29    24    19    1
    30    25    19    1
@<TRIPOS>MOLECULE
*****
 27 30 0 0 0
SMALL
GASTEIGER

@<TRIPOS>ATOM
      1 C         142.3009  141.7993  162.2687 C.3     1  UNL1        0.1123
      2 N         140.6148  140.9353  165.6562 N.am    1  UNL1       -0.2414
      3 C         140.1668  139.7827  164.8072 C.3     1  UNL1        0.1212
      4 C         140.7439  139.9661  163.4349 C.3     1  UNL1        0.1169
      5 N         141.5485  141.2320  163.4358 N.am    1  UNL1       -0.2606
      6 C         141.4687  141.8310  164.8086 C.2     1  UNL1        0.3111
      7 O         142.1273  143.1025  165.2554 O.2     1  UNL1       -0.2520
      8 C         140.5611  143.9927  169.8574 C.3     1  UNL1        0.0311
      9 C         140.2426  142.6826  169.2001 C.ar    1  UNL1       -0.0206
     10 C         139.5787  141.5910  169.9859 C.ar    1  UNL1       -0.0042
     11 C         139.2601  140.2809  169.3286 C.ar    1  UNL1        0.0010
     12 C         139.6055  140.0623  167.8854 C.ar    1  UNL1        0.0149
     13 C         140.2694  141.1539  167.0995 C.ar    1  UNL1        0.0550
     14 C         140.5879  142.4640  167.7568 C.ar    1  UNL1        0.0107
     15 C         141.5839  142.0891  160.9833 C.3     1  UNL1        0.0939
     16 N         140.8998  143.4095  160.7873 N.3     1  UNL1       -0.2701
     17 C         141.6502  144.5612  160.1868 C.3     1  UNL1        0.0897
     18 C         139.4652  143.5782  161.1919 C.3     1  UNL1        0.0721
     19 C         139.1148  143.8161  162.6309 C.3     1  UNL1        0.0147
     20 C         139.6029  144.9514  163.4811 C.3     1  UNL1        0.0013
     21 C         139.0045  144.7974  164.8479 C.3     1  UNL1        0.0000
     22 C         138.1466  143.5669  164.8424 C.3     1  UNL1        0.0000
     23 C         137.6585  142.4317  163.9922 C.3     1  UNL1        0.0000
     24 C         138.2569  142.5857  162.6253 C.3     1  UNL1        0.0013
     25 C         138.2148  142.9605  163.4722 C.3     1  UNL1        0.0013
     26 C         137.3090  141.7900  163.7166 C.3     1  UNL1        0.0000
     27 C         137.8709  141.9346  162.4332 C.3     1  UNL1        0.0000
@<TRIPOS>BOND
     1     8     9    1
     2     9    10   ar
     3    10    11   ar
     4    11    12   ar
     5    12    13   ar
     6    13     2    1
     7     2     3    1
     8     3     4    1
     9     4     5    1
    10     5     1    1
    11     1    15    1
    12    15    16    1
    13    16    17    1
    14    16    18    1
    15    19    18    1
    16    19    20    1
    17    20    21    1
    18    22    21    1
    19    22    23    1
    20    23    24    1
    21    22    25    1
    22    25    26    1
    23    25    27    1
    24     5     6   am
    25     6     7    2
    26    13    14   ar
    27    14     9   ar
    28     6     2   am
    29    24    19    1
    30    25    19    1
