@<TRIPOS>MOLECULE
*****
 36 41 0 0 0
SMALL
GASTEIGER

@<TRIPOS>ATOM
      1 C         142.5944  136.7264  156.0568 C.ar    1  UNL1       -0.0065
      2 C         143.5612  137.3119  155.0707 C.ar    1  UNL1       -0.0032
      3 C         144.2413  138.6148  155.3703 C.ar    1  UNL1       -0.0026
      4 C         143.9545  139.3322  156.6561 C.ar    1  UNL1        0.0019
      5 C         142.9877  138.7467  157.6421 C.ar    1  UNL1       -0.0200
      6 C         142.3076  137.4438  157.3425 C.ar    1  UNL1       -0.0071
      7 C         142.9049  139.6752  158.8173 C.3     1  UNL1        0.0519
      8 C         143.8206  140.8345  158.5576 C.2     1  UNL1        0.0074
      9 C         144.3354  142.1248  159.1234 C.2     1  UNL1        0.0976
     10 N         145.3022  142.7103  158.1373 N.2     1  UNL1       -0.1526
     11 N         145.3850  141.7819  156.9621 N.2     1  UNL1       -0.1678
     12 C         144.4693  140.6226  157.2218 C.3     1  UNL1        0.1672
     13 C         143.9508  142.7243  160.4435 C.ar    1  UNL1        0.0265
     14 C         144.8973  143.1771  161.5155 C.ar    1  UNL1        0.0376
     15 S         144.0837  143.7089  162.6579 S.2     1  UNL1       -0.0780
     16 C         142.6343  143.5849  162.2920 C.ar    1  UNL1        0.0711
     17 C         142.5522  142.9764  160.9234 C.ar    1  UNL1        0.0168
     18 C         141.4712  143.9970  163.1448 C.1     1  UNL1       -0.0543
     19 C         140.3081  144.4091  163.9978 C.1     1  UNL1       -0.0388
     20 C         139.1451  144.8213  164.8506 C.3     1  UNL1        0.2814
     21 O         137.9503  143.9228  164.9745 O.3     1  UNL1       -0.4612
     22 C         137.9565  142.5724  164.3215 C.ar    1  UNL1        0.1401
     23 C         138.3944  141.3659  165.0978 C.ar    1  UNL1        0.0378
     24 C         138.4006  140.0156  164.4448 C.ar    1  UNL1        0.0145
     25 C         137.9688  139.8716  163.0156 C.ar    1  UNL1        0.0579
     26 CL        137.9749  138.5212  162.3626 Cl      1  UNL1       -0.0822
     27 C         137.5308  141.0781  162.2393 C.ar    1  UNL1        0.0145
     28 C         137.5246  142.4285  162.8922 C.ar    1  UNL1        0.0378
     29 C         141.9143  135.4234  155.7571 C.3     1  UNL1        0.0992
     30 C         144.3510  130.2683  157.6245 C.3     1  UNL1        0.0897
     31 N         143.7419  131.5571  157.1577 N.3     1  UNL1       -0.2691
     32 C         142.5463  131.5368  156.2520 C.3     1  UNL1        0.0897
     33 C         141.9371  132.8256  155.7851 C.3     1  UNL1        0.0899
     34 N         142.5234  134.1346  156.2240 N.3     1  UNL1       -0.2665
     35 C         143.7190  134.1549  157.1297 C.3     1  UNL1        0.0899
     36 C         144.3282  132.8661  157.5965 C.3     1  UNL1        0.0897
@<TRIPOS>BOND
     1    30    31    1
     2    31    32    1
     3    32    33    1
     4    33    34    1
     5    34    29    1
     6    29     1    1
     7     1     2   ar
     8     2     3   ar
     9     3     4   ar
    10     4     5   ar
    11     5     6   ar
    12     5     7    1
    13     7     8    1
    14     8     9    2
    15     9    13    1
    16    13    14   ar
    17    14    15   ar
    18    15    16   ar
    19    16    18    1
    20    18    19    3
    21    19    20    1
    22    20    21    1
    23    21    22    1
    24    22    23   ar
    25    23    24   ar
    26    24    25   ar
    27    25    26    1
    28    25    27   ar
    29    27    28   ar
    30    16    17   ar
    31     9    10    1
    32    10    11    2
    33    11    12    1
    34    34    35    1
    35    35    36    1
    36    36    31    1
    37     6     1   ar
    38    12     8    1
    39    12     4    1
    40    17    13   ar
    41    28    22   ar
@<TRIPOS>MOLECULE
*****
 36 41 0 0 0
SMALL
GASTEIGER

@<TRIPOS>ATOM
      1 C         142.5601  136.3190  155.8533 C.ar    1  UNL1       -0.0065
      2 C         141.6580  136.7437  154.7327 C.ar    1  UNL1       -0.0032
      3 C         140.5156  137.6776  155.0025 C.ar    1  UNL1       -0.0026
      4 C         140.2753  138.1867  156.3928 C.ar    1  UNL1        0.0019
      5 C         141.1774  137.7620  157.5134 C.ar    1  UNL1       -0.0200
      6 C         142.3198  136.8281  157.2436 C.ar    1  UNL1       -0.0071
      7 C         140.6970  138.4231  158.7712 C.3     1  UNL1        0.0519
      8 C         139.4979  139.2564  158.4280 C.2     1  UNL1        0.0074
      9 C         138.4599  140.1800  158.9932 C.2     1  UNL1        0.0976
     10 N         137.5578  140.6048  157.8727 N.2     1  UNL1       -0.1526
     11 N         138.0383  139.9437  156.6149 N.2     1  UNL1       -0.1678
     12 C         139.2373  139.1104  156.9580 C.3     1  UNL1        0.1672
     13 C         138.3443  140.6044  160.4273 C.ar    1  UNL1        0.0265
     14 C         138.2254  142.0153  160.9225 C.ar    1  UNL1        0.0376
     15 S         138.1349  141.9752  162.4192 S.2     1  UNL1       -0.0780
     16 C         138.1980  140.5395  162.8491 C.ar    1  UNL1        0.0711
     17 C         138.3274  139.6923  161.6181 C.ar    1  UNL1        0.0168
     18 C         138.1416  140.0389  164.2619 C.1     1  UNL1       -0.0543
     19 C         138.0851  139.5383  165.6748 C.1     1  UNL1       -0.0388
     20 C         138.0287  139.0377  167.0877 C.3     1  UNL1        0.2814
     21 O         139.1665  139.3108  168.0262 O.3     1  UNL1       -0.4612
     22 C         140.3131  140.1713  167.5844 C.ar    1  UNL1        0.1401
     23 C         141.5012  139.5503  166.9116 C.ar    1  UNL1        0.0378
     24 C         142.6477  140.4107  166.4698 C.ar    1  UNL1        0.0145
     25 C         142.6060  141.8922  166.7009 C.ar    1  UNL1        0.0579
     26 CL        143.7526  142.7527  166.2592 Cl      1  UNL1       -0.0822
     27 C         141.4179  142.5132  167.3737 C.ar    1  UNL1        0.0145
     28 C         140.2714  141.6528  167.8155 C.ar    1  UNL1        0.0378
     29 C         143.7025  135.3851  155.5836 C.3     1  UNL1        0.0992
     30 C         143.3152  129.6228  157.2102 C.3     1  UNL1        0.0897
     31 N         143.4121  131.0634  156.8036 N.3     1  UNL1       -0.2691
     32 C         142.6163  131.5684  155.6367 C.3     1  UNL1        0.0897
     33 C         142.7131  133.0090  155.2300 C.3     1  UNL1        0.0899
     34 N         143.6057  133.9445  155.9902 N.3     1  UNL1       -0.2665
     35 C         144.4015  133.4395  157.1572 C.3     1  UNL1        0.0899
     36 C         144.3047  131.9989  157.5638 C.3     1  UNL1        0.0897
@<TRIPOS>BOND
     1    30    31    1
     2    31    32    1
     3    32    33    1
     4    33    34    1
     5    34    29    1
     6    29     1    1
     7     1     2   ar
     8     2     3   ar
     9     3     4   ar
    10     4     5   ar
    11     5     6   ar
    12     5     7    1
    13     7     8    1
    14     8     9    2
    15     9    13    1
    16    13    14   ar
    17    14    15   ar
    18    15    16   ar
    19    16    18    1
    20    18    19    3
    21    19    20    1
    22    20    21    1
    23    21    22    1
    24    22    23   ar
    25    23    24   ar
    26    24    25   ar
    27    25    26    1
    28    25    27   ar
    29    27    28   ar
    30    16    17   ar
    31     9    10    1
    32    10    11    2
    33    11    12    1
    34    34    35    1
    35    35    36    1
    36    36    31    1
    37     6     1   ar
    38    12     8    1
    39    12     4    1
    40    17    13   ar
    41    28    22   ar
@<TRIPOS>MOLECULE
*****
 36 41 0 0 0
SMALL
GASTEIGER

@<TRIPOS>ATOM
      1 C         142.4840  133.0757  153.9258 C.ar    1  UNL1       -0.0065
      2 C         141.8541  134.1103  153.0411 C.ar    1  UNL1       -0.0032
      3 C         141.6514  135.5075  153.5478 C.ar    1  UNL1       -0.0026
      4 C         142.0786  135.8700  154.9392 C.ar    1  UNL1        0.0019
      5 C         142.7085  134.8354  155.8239 C.ar    1  UNL1       -0.0200
      6 C         142.9112  133.4382  155.3172 C.ar    1  UNL1       -0.0071
      7 C         143.0265  135.4820  157.1395 C.3     1  UNL1        0.0519
      8 C         142.5930  136.9162  157.0679 C.2     1  UNL1        0.0074
      9 C         142.5217  138.2022  157.8368 C.2     1  UNL1        0.0976
     10 N         141.8918  139.2368  156.9521 N.2     1  UNL1       -0.1526
     11 N         141.5739  138.5902  155.6365 N.2     1  UNL1       -0.1678
     12 C         142.0072  137.1561  155.7080 C.3     1  UNL1        0.1672
     13 C         142.9968  138.4160  159.2434 C.ar    1  UNL1        0.0265
     14 C         143.0147  137.3863  160.3341 C.ar    1  UNL1        0.0376
     15 S         143.5664  138.0310  161.5710 S.2     1  UNL1       -0.0780
     16 C         143.8895  139.4590  161.2448 C.ar    1  UNL1        0.0711
     17 C         143.5375  139.6969  159.8063 C.ar    1  UNL1        0.0168
     18 C         144.4638  140.4713  162.1910 C.1     1  UNL1       -0.0543
     19 C         145.0382  141.4837  163.1372 C.1     1  UNL1       -0.0388
     20 C         145.6124  142.4961  164.0834 C.3     1  UNL1        0.2814
     21 O         144.7328  143.1483  165.1085 O.3     1  UNL1       -0.4612
     22 C         143.3573  143.6123  164.7303 C.ar    1  UNL1        0.1401
     23 C         143.1808  144.8910  163.9662 C.ar    1  UNL1        0.0378
     24 C         141.8054  145.3550  163.5881 C.ar    1  UNL1        0.0145
     25 C         140.6066  144.5403  163.9740 C.ar    1  UNL1        0.0579
     26 CL        139.2311  145.0043  163.5959 Cl      1  UNL1       -0.0822
     27 C         140.7831  143.2616  164.7381 C.ar    1  UNL1        0.0145
     28 C         142.1585  142.7976  165.1162 C.ar    1  UNL1        0.0378
     29 C         142.6867  131.6784  153.4191 C.3     1  UNL1        0.0992
     30 C         144.1444  127.2849  157.2364 C.3     1  UNL1        0.0897
     31 N         143.7800  128.3833  156.2820 N.3     1  UNL1       -0.2691
     32 C         142.3446  128.7845  156.1133 C.3     1  UNL1        0.0897
     33 C         141.9801  129.8830  155.1589 C.3     1  UNL1        0.0899
     34 N         143.0511  130.5801  154.3734 N.3     1  UNL1       -0.2665
     35 C         144.4866  130.1787  154.5422 C.3     1  UNL1        0.0899
     36 C         144.8510  129.0804  155.4965 C.3     1  UNL1        0.0897
@<TRIPOS>BOND
     1    30    31    1
     2    31    32    1
     3    32    33    1
     4    33    34    1
     5    34    29    1
     6    29     1    1
     7     1     2   ar
     8     2     3   ar
     9     3     4   ar
    10     4     5   ar
    11     5     6   ar
    12     5     7    1
    13     7     8    1
    14     8     9    2
    15     9    13    1
    16    13    14   ar
    17    14    15   ar
    18    15    16   ar
    19    16    18    1
    20    18    19    3
    21    19    20    1
    22    20    21    1
    23    21    22    1
    24    22    23   ar
    25    23    24   ar
    26    24    25   ar
    27    25    26    1
    28    25    27   ar
    29    27    28   ar
    30    16    17   ar
    31     9    10    1
    32    10    11    2
    33    11    12    1
    34    34    35    1
    35    35    36    1
    36    36    31    1
    37     6     1   ar
    38    12     8    1
    39    12     4    1
    40    17    13   ar
    41    28    22   ar
@<TRIPOS>MOLECULE
*****
 36 41 0 0 0
SMALL
GASTEIGER

@<TRIPOS>ATOM
      1 C         143.0413  131.4042  155.4596 C.ar    1  UNL1       -0.0065
      2 C         142.0319  131.8042  154.4246 C.ar    1  UNL1       -0.0032
      3 C         141.5020  133.2072  154.3968 C.ar    1  UNL1       -0.0026
      4 C         141.9814  134.2101  155.4039 C.ar    1  UNL1        0.0019
      5 C         142.9907  133.8101  156.4389 C.ar    1  UNL1       -0.0200
      6 C         143.5207  132.4071  156.4667 C.ar    1  UNL1       -0.0071
      7 C         143.2748  135.0075  157.2964 C.3     1  UNL1        0.0519
      8 C         142.4411  136.1477  156.7914 C.2     1  UNL1        0.0074
      9 C         142.1014  137.5924  157.0093 C.2     1  UNL1        0.0976
     10 N         141.0921  137.9924  155.9743 N.2     1  UNL1       -0.1526
     11 N         140.8080  136.7949  155.1168 N.2     1  UNL1       -0.1678
     12 C         141.6417  135.6549  155.6218 C.3     1  UNL1        0.1672
     13 C         142.6711  138.4810  158.0751 C.ar    1  UNL1        0.0265
     14 C         143.0711  139.9167  157.9051 C.ar    1  UNL1        0.0376
     15 S         143.5880  140.4129  159.2229 S.2     1  UNL1       -0.0780
     16 C         143.5075  139.2840  160.2073 C.ar    1  UNL1        0.0711
     17 C         142.9408  138.0900  159.4979 C.ar    1  UNL1        0.0168
     18 C         143.9210  139.3393  161.6480 C.1     1  UNL1       -0.0543
     19 C         144.3346  139.3946  163.0889 C.1     1  UNL1       -0.0388
     20 C         144.7481  139.4499  164.5297 C.3     1  UNL1        0.2814
     21 O         144.0063  138.6437  165.5543 O.3     1  UNL1       -0.4612
     22 C         142.5174  138.7765  165.6788 C.ar    1  UNL1        0.1401
     23 C         141.6153  137.9054  164.8557 C.ar    1  UNL1        0.0378
     24 C         140.1264  138.0381  164.9802 C.ar    1  UNL1        0.0145
     25 C         139.5396  139.0419  165.9278 C.ar    1  UNL1        0.0579
     26 CL        138.0506  139.1747  166.0523 Cl      1  UNL1       -0.0822
     27 C         140.4416  139.9130  166.7509 C.ar    1  UNL1        0.0145
     28 C         141.9305  139.7803  166.6264 C.ar    1  UNL1        0.0378
     29 C         143.5712  130.0012  155.4874 C.3     1  UNL1        0.0992
     30 C         142.7766  126.5903  160.3592 C.3     1  UNL1        0.0897
     31 N         142.9753  127.4430  159.1413 N.3     1  UNL1       -0.2691
     32 C         144.0329  128.5066  159.1348 C.3     1  UNL1        0.0897
     33 C         144.2316  129.3594  157.9168 C.3     1  UNL1        0.0899
     34 N         143.3726  129.1485  156.7054 N.3     1  UNL1       -0.2665
     35 C         142.3149  128.0848  156.7119 C.3     1  UNL1        0.0899
     36 C         142.1163  127.2321  157.9298 C.3     1  UNL1        0.0897
@<TRIPOS>BOND
     1    30    31    1
     2    31    32    1
     3    32    33    1
     4    33    34    1
     5    34    29    1
     6    29     1    1
     7     1     2   ar
     8     2     3   ar
     9     3     4   ar
    10     4     5   ar
    11     5     6   ar
    12     5     7    1
    13     7     8    1
    14     8     9    2
    15     9    13    1
    16    13    14   ar
    17    14    15   ar
    18    15    16   ar
    19    16    18    1
    20    18    19    3
    21    19    20    1
    22    20    21    1
    23    21    22    1
    24    22    23   ar
    25    23    24   ar
    26    24    25   ar
    27    25    26    1
    28    25    27   ar
    29    27    28   ar
    30    16    17   ar
    31     9    10    1
    32    10    11    2
    33    11    12    1
    34    34    35    1
    35    35    36    1
    36    36    31    1
    37     6     1   ar
    38    12     8    1
    39    12     4    1
    40    17    13   ar
    41    28    22   ar
@<TRIPOS>MOLECULE
*****
 36 41 0 0 0
SMALL
GASTEIGER

@<TRIPOS>ATOM
      1 C         143.4550  132.1369  155.9239 C.ar    1  UNL1       -0.0065
      2 C         142.2334  132.2317  155.0586 C.ar    1  UNL1       -0.0032
      3 C         141.4529  133.5113  155.0007 C.ar    1  UNL1       -0.0026
      4 C         141.8940  134.6961  155.8080 C.ar    1  UNL1        0.0019
      5 C         143.1155  134.6013  156.6733 C.ar    1  UNL1       -0.0200
      6 C         143.8961  133.3217  156.7312 C.ar    1  UNL1       -0.0071
      7 C         143.3066  135.9251  157.3521 C.3     1  UNL1        0.0519
      8 C         142.2031  136.8382  156.9064 C.2     1  UNL1        0.0074
      9 C         141.6391  138.2206  157.0505 C.2     1  UNL1        0.0976
     10 N         140.4176  138.3154  156.1853 N.2     1  UNL1       -0.1526
     11 N         140.2265  136.9916  155.5064 N.2     1  UNL1       -0.1678
     12 C         141.3300  136.0786  155.9521 C.3     1  UNL1        0.1672
     13 C         142.1986  139.3160  157.9092 C.ar    1  UNL1        0.0265
     14 C         142.1414  140.7853  157.6124 C.ar    1  UNL1        0.0376
     15 S         142.8209  141.5117  158.7351 S.2     1  UNL1       -0.0780
     16 C         143.2981  140.4914  159.7257 C.ar    1  UNL1        0.0711
     17 C         142.9135  139.1344  159.2153 C.ar    1  UNL1        0.0168
     18 C         144.0312  140.7778  161.0026 C.1     1  UNL1       -0.0543
     19 C         144.7643  141.0642  162.2796 C.1     1  UNL1       -0.0388
     20 C         145.4974  141.3506  163.5565 C.3     1  UNL1        0.2814
     21 O         145.2163  142.6134  164.3157 O.3     1  UNL1       -0.4612
     22 C         143.8291  143.1839  164.3350 C.ar    1  UNL1        0.1401
     23 C         143.5449  144.4879  163.6503 C.ar    1  UNL1        0.0378
     24 C         142.1578  145.0585  163.6696 C.ar    1  UNL1        0.0145
     25 C         141.0550  144.3250  164.3735 C.ar    1  UNL1        0.0579
     26 CL        139.6678  144.8955  164.3928 Cl      1  UNL1       -0.0822
     27 C         141.3392  143.0210  165.0582 C.ar    1  UNL1        0.0145
     28 C         142.7263  142.4505  165.0389 C.ar    1  UNL1        0.0378
     29 C         144.2356  130.8573  155.9818 C.3     1  UNL1        0.0992
     30 C         142.8028  126.6490  160.0113 C.3     1  UNL1        0.0897
     31 N         143.1610  127.7010  159.0040 N.3     1  UNL1       -0.2691
     32 C         142.5619  127.6582  157.6295 C.3     1  UNL1        0.0897
     33 C         142.9201  128.7103  156.6221 C.3     1  UNL1        0.0899
     34 N         143.8774  129.8052  156.9892 N.3     1  UNL1       -0.2665
     35 C         144.4765  129.8480  158.3637 C.3     1  UNL1        0.0899
     36 C         144.1184  128.7959  159.3711 C.3     1  UNL1        0.0897
@<TRIPOS>BOND
     1    30    31    1
     2    31    32    1
     3    32    33    1
     4    33    34    1
     5    34    29    1
     6    29     1    1
     7     1     2   ar
     8     2     3   ar
     9     3     4   ar
    10     4     5   ar
    11     5     6   ar
    12     5     7    1
    13     7     8    1
    14     8     9    2
    15     9    13    1
    16    13    14   ar
    17    14    15   ar
    18    15    16   ar
    19    16    18    1
    20    18    19    3
    21    19    20    1
    22    20    21    1
    23    21    22    1
    24    22    23   ar
    25    23    24   ar
    26    24    25   ar
    27    25    26    1
    28    25    27   ar
    29    27    28   ar
    30    16    17   ar
    31     9    10    1
    32    10    11    2
    33    11    12    1
    34    34    35    1
    35    35    36    1
    36    36    31    1
    37     6     1   ar
    38    12     8    1
    39    12     4    1
    40    17    13   ar
    41    28    22   ar
@<TRIPOS>MOLECULE
*****
 36 41 0 0 0
SMALL
GASTEIGER

@<TRIPOS>ATOM
      1 C         141.8962  135.9820  155.0705 C.ar    1  UNL1       -0.0065
      2 C         140.8250  136.3663  154.0934 C.ar    1  UNL1       -0.0032
      3 C         139.7810  137.3709  154.4818 C.ar    1  UNL1       -0.0026
      4 C         139.8083  137.9911  155.8473 C.ar    1  UNL1        0.0019
      5 C         140.8795  137.6068  156.8244 C.ar    1  UNL1       -0.0200
      6 C         141.9235  136.6022  156.4360 C.ar    1  UNL1       -0.0071
      7 C         140.6522  138.3802  158.0894 C.3     1  UNL1        0.0519
      8 C         139.4405  139.2426  157.8941 C.2     1  UNL1        0.0074
      9 C         138.5511  140.2535  158.5552 C.2     1  UNL1        0.0976
     10 N         137.4799  140.6378  157.5781 N.2     1  UNL1       -0.1526
     11 N         137.7072  139.8644  156.3131 N.2     1  UNL1       -0.1678
     12 C         138.9189  139.0021  156.5084 C.3     1  UNL1        0.1672
     13 C         138.7059  140.7865  159.9487 C.ar    1  UNL1        0.0265
     14 C         138.5279  142.2148  160.3712 C.ar    1  UNL1        0.0376
     15 S         138.7778  142.2958  161.8480 S.2     1  UNL1       -0.0780
     16 C         139.1102  140.9177  162.3383 C.ar    1  UNL1        0.0711
     17 C         139.0657  139.9849  161.1644 C.ar    1  UNL1        0.0168
     18 C         139.4308  140.5389  163.7538 C.1     1  UNL1       -0.0543
     19 C         139.7514  140.1600  165.1693 C.1     1  UNL1       -0.0388
     20 C         140.0719  139.7812  166.5848 C.3     1  UNL1        0.2814
     21 O         141.5009  139.6939  167.0326 O.3     1  UNL1       -0.4612
     22 C         142.5984  140.1927  166.1400 C.ar    1  UNL1        0.1401
     23 C         142.8994  141.6605  166.0700 C.ar    1  UNL1        0.0378
     24 C         143.9968  142.1593  165.1774 C.ar    1  UNL1        0.0145
     25 C         144.7933  141.1903  164.3548 C.ar    1  UNL1        0.0579
     26 CL        145.8908  141.6891  163.4622 Cl      1  UNL1       -0.0822
     27 C         144.4923  139.7225  164.4248 C.ar    1  UNL1        0.0145
     28 C         143.3948  139.2237  165.3174 C.ar    1  UNL1        0.0378
     29 C         142.9403  134.9774  154.6821 C.3     1  UNL1        0.0992
     30 C         143.4772  129.8617  157.7711 C.3     1  UNL1        0.0897
     31 N         143.3430  131.1406  156.9988 N.3     1  UNL1       -0.2691
     32 C         144.2153  132.3140  157.3338 C.3     1  UNL1        0.0897
     33 C         144.0810  133.5930  156.5615 C.3     1  UNL1        0.0899
     34 N         143.0745  133.6985  155.4544 N.3     1  UNL1       -0.2665
     35 C         142.2022  132.5250  155.1195 C.3     1  UNL1        0.0899
     36 C         142.3365  131.2461  155.8917 C.3     1  UNL1        0.0897
@<TRIPOS>BOND
     1    30    31    1
     2    31    32    1
     3    32    33    1
     4    33    34    1
     5    34    29    1
     6    29     1    1
     7     1     2   ar
     8     2     3   ar
     9     3     4   ar
    10     4     5   ar
    11     5     6   ar
    12     5     7    1
    13     7     8    1
    14     8     9    2
    15     9    13    1
    16    13    14   ar
    17    14    15   ar
    18    15    16   ar
    19    16    18    1
    20    18    19    3
    21    19    20    1
    22    20    21    1
    23    21    22    1
    24    22    23   ar
    25    23    24   ar
    26    24    25   ar
    27    25    26    1
    28    25    27   ar
    29    27    28   ar
    30    16    17   ar
    31     9    10    1
    32    10    11    2
    33    11    12    1
    34    34    35    1
    35    35    36    1
    36    36    31    1
    37     6     1   ar
    38    12     8    1
    39    12     4    1
    40    17    13   ar
    41    28    22   ar
@<TRIPOS>MOLECULE
*****
 36 41 0 0 0
SMALL
GASTEIGER

@<TRIPOS>ATOM
      1 C         138.6091  139.8437  165.1651 C.ar    1  UNL1       -0.0065
      2 C         138.3442  141.3193  165.1171 C.ar    1  UNL1       -0.0032
      3 C         138.2741  142.0260  163.7959 C.ar    1  UNL1       -0.0026
      4 C         138.4691  141.2571  162.5228 C.ar    1  UNL1        0.0019
      5 C         138.7340  139.7815  162.5708 C.ar    1  UNL1       -0.0200
      6 C         138.8041  139.0748  163.8920 C.ar    1  UNL1       -0.0071
      7 C         138.8845  139.2915  161.1612 C.3     1  UNL1        0.0519
      8 C         138.7125  140.4642  160.2418 C.2     1  UNL1        0.0074
      9 C         138.6992  140.8861  158.8025 C.2     1  UNL1        0.0976
     10 N         138.4342  142.3617  158.7544 N.2     1  UNL1       -0.1526
     11 N         138.2838  142.8518  160.1641 N.2     1  UNL1       -0.1678
     12 C         138.4558  141.6791  161.0833 C.3     1  UNL1        0.1672
     13 C         138.9133  139.9897  157.6189 C.ar    1  UNL1        0.0265
     14 C         138.4194  140.2377  156.2244 C.ar    1  UNL1        0.0376
     15 S         138.8598  139.0892  155.3658 S.2     1  UNL1       -0.0780
     16 C         139.6257  138.1316  156.2296 C.ar    1  UNL1        0.0711
     17 C         139.6588  138.6881  157.6222 C.ar    1  UNL1        0.0168
     18 C         140.2491  136.8435  155.7799 C.1     1  UNL1       -0.0543
     19 C         140.8726  135.5554  155.3303 C.1     1  UNL1       -0.0388
     20 C         141.4960  134.2674  154.8806 C.3     1  UNL1        0.2814
     21 O         142.9623  134.0307  155.0896 O.3     1  UNL1       -0.4612
     22 C         143.4226  132.9064  155.9696 C.ar    1  UNL1        0.1401
     23 C         142.7804  131.5555  155.8580 C.ar    1  UNL1        0.0378
     24 C         143.2406  130.4313  156.7380 C.ar    1  UNL1        0.0145
     25 C         144.3430  130.6580  157.7295 C.ar    1  UNL1        0.0579
     26 CL        144.8033  129.5338  158.6095 Cl      1  UNL1       -0.0822
     27 C         144.9852  132.0090  157.8411 C.ar    1  UNL1        0.0145
     28 C         144.5250  133.1332  156.9612 C.ar    1  UNL1        0.0378
     29 C         138.6792  139.1368  166.4864 C.3     1  UNL1        0.0992
     30 C         142.0192  141.4011  170.9267 C.3     1  UNL1        0.0897
     31 N         141.1842  140.8351  169.8166 N.3     1  UNL1       -0.2691
     32 C         141.8122  140.5204  168.4913 C.3     1  UNL1        0.0897
     33 C         140.9772  139.9543  167.3812 C.3     1  UNL1        0.0899
     34 N         139.5142  139.7029  167.5964 N.3     1  UNL1       -0.2665
     35 C         138.8862  140.0176  168.9219 C.3     1  UNL1        0.0899
     36 C         139.7212  140.5836  170.0319 C.3     1  UNL1        0.0897
@<TRIPOS>BOND
     1    30    31    1
     2    31    32    1
     3    32    33    1
     4    33    34    1
     5    34    29    1
     6    29     1    1
     7     1     2   ar
     8     2     3   ar
     9     3     4   ar
    10     4     5   ar
    11     5     6   ar
    12     5     7    1
    13     7     8    1
    14     8     9    2
    15     9    13    1
    16    13    14   ar
    17    14    15   ar
    18    15    16   ar
    19    16    18    1
    20    18    19    3
    21    19    20    1
    22    20    21    1
    23    21    22    1
    24    22    23   ar
    25    23    24   ar
    26    24    25   ar
    27    25    26    1
    28    25    27   ar
    29    27    28   ar
    30    16    17   ar
    31     9    10    1
    32    10    11    2
    33    11    12    1
    34    34    35    1
    35    35    36    1
    36    36    31    1
    37     6     1   ar
    38    12     8    1
    39    12     4    1
    40    17    13   ar
    41    28    22   ar
@<TRIPOS>MOLECULE
*****
 36 41 0 0 0
SMALL
GASTEIGER

@<TRIPOS>ATOM
      1 C         143.6672  141.8407  156.1522 C.ar    1  UNL1       -0.0065
      2 C         143.2076  143.0867  155.4551 C.ar    1  UNL1       -0.0032
      3 C         142.3351  144.0710  156.1761 C.ar    1  UNL1       -0.0026
      4 C         141.9221  143.8092  157.5941 C.ar    1  UNL1        0.0019
      5 C         142.3817  142.5631  158.2912 C.ar    1  UNL1       -0.0200
      6 C         143.2543  141.5788  157.5703 C.ar    1  UNL1       -0.0071
      7 C         141.8178  142.5748  159.6812 C.3     1  UNL1        0.0519
      8 C         141.0097  143.8281  159.8431 C.2     1  UNL1        0.0074
      9 C         140.1618  144.6098  160.8022 C.2     1  UNL1        0.0976
     10 N         139.7022  145.8559  160.1051 N.2     1  UNL1       -0.1526
     11 N         140.2661  145.8442  158.7152 N.2     1  UNL1       -0.1678
     12 C         141.0742  144.5910  158.5532 C.3     1  UNL1        0.1672
     13 C         139.8315  144.2148  162.2111 C.ar    1  UNL1        0.0265
     14 C         139.5770  145.1534  163.3532 C.ar    1  UNL1        0.0376
     15 S         139.2859  144.3305  164.5732 S.2     1  UNL1       -0.0780
     16 C         139.3606  142.8835  164.1850 C.ar    1  UNL1        0.0711
     17 C         139.6978  142.8121  162.7252 C.ar    1  UNL1        0.0168
     18 C         139.1373  141.7135  165.0966 C.1     1  UNL1       -0.0543
     19 C         138.9140  140.5433  166.0082 C.1     1  UNL1       -0.0388
     20 C         138.6907  139.3733  166.9198 C.3     1  UNL1        0.2814
     21 O         139.0539  139.4736  168.3717 O.3     1  UNL1       -0.4612
     22 C         140.2626  140.2574  168.7900 C.ar    1  UNL1        0.1401
     23 C         140.0978  141.5901  169.4583 C.ar    1  UNL1        0.0378
     24 C         141.3064  142.3739  169.8766 C.ar    1  UNL1        0.0145
     25 C         142.6797  141.8249  169.6266 C.ar    1  UNL1        0.0579
     26 CL        143.8884  142.6087  170.0449 Cl      1  UNL1       -0.0822
     27 C         142.8445  140.4922  168.9583 C.ar    1  UNL1        0.0145
     28 C         141.6359  139.7084  168.5400 C.ar    1  UNL1        0.0378
     29 C         144.5398  140.8563  155.4313 C.3     1  UNL1        0.0992
     30 C         150.0567  142.4492  153.6918 C.3     1  UNL1        0.0897
     31 N         148.6775  142.0510  154.1266 N.3     1  UNL1       -0.2691
     32 C         148.2826  142.1687  155.5689 C.3     1  UNL1        0.0897
     33 C         146.9034  141.7705  156.0038 C.3     1  UNL1        0.0899
     34 N         145.9190  141.2545  154.9964 N.3     1  UNL1       -0.2665
     35 C         146.3140  141.1368  153.5541 C.3     1  UNL1        0.0899
     36 C         147.6932  141.5350  153.1192 C.3     1  UNL1        0.0897
@<TRIPOS>BOND
     1    30    31    1
     2    31    32    1
     3    32    33    1
     4    33    34    1
     5    34    29    1
     6    29     1    1
     7     1     2   ar
     8     2     3   ar
     9     3     4   ar
    10     4     5   ar
    11     5     6   ar
    12     5     7    1
    13     7     8    1
    14     8     9    2
    15     9    13    1
    16    13    14   ar
    17    14    15   ar
    18    15    16   ar
    19    16    18    1
    20    18    19    3
    21    19    20    1
    22    20    21    1
    23    21    22    1
    24    22    23   ar
    25    23    24   ar
    26    24    25   ar
    27    25    26    1
    28    25    27   ar
    29    27    28   ar
    30    16    17   ar
    31     9    10    1
    32    10    11    2
    33    11    12    1
    34    34    35    1
    35    35    36    1
    36    36    31    1
    37     6     1   ar
    38    12     8    1
    39    12     4    1
    40    17    13   ar
    41    28    22   ar
@<TRIPOS>MOLECULE
*****
 36 41 0 0 0
SMALL
GASTEIGER

@<TRIPOS>ATOM
      1 C         138.7386  139.4208  164.8357 C.ar    1  UNL1       -0.0065
      2 C         137.7282  140.3886  164.2949 C.ar    1  UNL1       -0.0032
      3 C         137.6172  140.6080  162.8152 C.ar    1  UNL1       -0.0026
      4 C         138.5165  139.8597  161.8764 C.ar    1  UNL1        0.0019
      5 C         139.5269  138.8920  162.4173 C.ar    1  UNL1       -0.0200
      6 C         139.6379  138.6725  163.8970 C.ar    1  UNL1       -0.0071
      7 C         140.2719  138.3026  161.2565 C.3     1  UNL1        0.0519
      8 C         139.7220  138.9061  159.9981 C.2     1  UNL1        0.0074
      9 C         139.8426  138.9148  158.5030 C.2     1  UNL1        0.0976
     10 N         138.8322  139.8825  157.9621 N.2     1  UNL1       -0.1526
     11 N         138.0872  140.4719  159.1230 N.2     1  UNL1       -0.1678
     12 C         138.6371  139.8685  160.3812 C.3     1  UNL1        0.1672
     13 C         140.8047  138.0989  157.6913 C.ar    1  UNL1        0.0265
     14 C         142.2956  138.2616  157.6657 C.ar    1  UNL1        0.0376
     15 S         142.8571  137.2404  156.7213 S.2     1  UNL1       -0.0780
     16 C         141.7132  136.4466  156.1632 C.ar    1  UNL1        0.0711
     17 C         140.4447  136.9772  156.7627 C.ar    1  UNL1        0.0168
     18 C         141.8191  135.3201  155.1786 C.1     1  UNL1       -0.0543
     19 C         141.9250  134.1935  154.1938 C.1     1  UNL1       -0.0388
     20 C         142.0310  133.0669  153.2092 C.3     1  UNL1        0.2814
     21 O         143.1073  132.0338  153.3644 O.3     1  UNL1       -0.4612
     22 C         143.3390  131.3866  154.6977 C.ar    1  UNL1        0.1401
     23 C         142.5564  130.1671  155.0854 C.ar    1  UNL1        0.0378
     24 C         142.7881  129.5198  156.4186 C.ar    1  UNL1        0.0145
     25 C         143.8023  130.0921  157.3640 C.ar    1  UNL1        0.0579
     26 CL        144.0339  129.4449  158.6972 Cl      1  UNL1       -0.0822
     27 C         144.5849  131.3116  156.9762 C.ar    1  UNL1        0.0145
     28 C         144.3532  131.9588  155.6431 C.ar    1  UNL1        0.0378
     29 C         138.8497  139.2013  166.3155 C.3     1  UNL1        0.0992
     30 C         141.2091  143.4679  169.8124 C.3     1  UNL1        0.0897
     31 N         140.6193  142.4013  168.9382 N.3     1  UNL1       -0.2691
     32 C         139.9080  141.2339  169.5556 C.3     1  UNL1        0.0897
     33 C         139.3181  140.1672  168.6814 C.3     1  UNL1        0.0899
     34 N         139.4395  140.2679  167.1897 N.3     1  UNL1       -0.2665
     35 C         140.1508  141.4354  166.5723 C.3     1  UNL1        0.0899
     36 C         140.7407  142.5020  167.4465 C.3     1  UNL1        0.0897
@<TRIPOS>BOND
     1    30    31    1
     2    31    32    1
     3    32    33    1
     4    33    34    1
     5    34    29    1
     6    29     1    1
     7     1     2   ar
     8     2     3   ar
     9     3     4   ar
    10     4     5   ar
    11     5     6   ar
    12     5     7    1
    13     7     8    1
    14     8     9    2
    15     9    13    1
    16    13    14   ar
    17    14    15   ar
    18    15    16   ar
    19    16    18    1
    20    18    19    3
    21    19    20    1
    22    20    21    1
    23    21    22    1
    24    22    23   ar
    25    23    24   ar
    26    24    25   ar
    27    25    26    1
    28    25    27   ar
    29    27    28   ar
    30    16    17   ar
    31     9    10    1
    32    10    11    2
    33    11    12    1
    34    34    35    1
    35    35    36    1
    36    36    31    1
    37     6     1   ar
    38    12     8    1
    39    12     4    1
    40    17    13   ar
    41    28    22   ar
