@<TRIPOS>MOLECULE
*****
 37 41 0 0 0
SMALL
GASTEIGER

@<TRIPOS>ATOM
      1 C         138.7471  139.9375  162.3399 C.3     1  UNL1        0.1281
      2 C         139.2107  140.3978  160.9896 C.3     1  UNL1        0.1299
      3 N         140.3334  139.6826  160.2982 N.ar    1  UNL1       -0.3048
      4 C         141.0007  139.9059  158.9735 C.ar    1  UNL1        0.0981
      5 C         142.0722  138.8684  158.8136 C.ar    1  UNL1        0.1176
      6 N         142.0670  138.0039  160.0394 N.ar    1  UNL1       -0.2211
      7 C         140.9924  138.5071  160.9570 C.ar    1  UNL1        0.1986
      8 C         140.5287  138.0469  162.3072 C.2     1  UNL1        0.2837
      9 O         141.1877  136.8714  162.9660 O.2     1  UNL1       -0.2666
     10 N         139.4060  138.7621  162.9986 N.am    1  UNL1       -0.2667
     11 C         142.9881  138.7212  157.6348 C.ar    1  UNL1        0.1008
     12 N         143.2135  137.3698  157.0244 N.ar    1  UNL1       -0.2123
     13 C         144.1294  137.2227  155.8456 C.ar    1  UNL1        0.2218
     14 N         144.8199  138.4270  155.2772 N.ar    1  UNL1       -0.2123
     15 C         144.5944  139.7784  155.8877 C.ar    1  UNL1        0.0991
     16 C         143.6785  139.9255  157.0665 C.ar    1  UNL1        0.0166
     17 C         143.4530  141.2770  157.6770 C.3     1  UNL1        0.0343
     18 N         144.3549  135.8712  155.2351 N.pl3   1  UNL1       -0.2681
     19 H         145.2070  135.6705  154.7846 H       1  UNL1        0.1565
     20 C         143.2821  134.8254  155.3109 C.ar    1  UNL1        0.1328
     21 C         142.2417  134.5522  154.2656 C.ar    1  UNL1        0.0565
     22 C         141.3781  133.4272  154.7541 C.ar    1  UNL1        0.1230
     23 N         141.8848  133.0052  156.1015 N.ar    1  UNL1       -0.1665
     24 N         143.0616  133.8693  156.4456 N.ar    1  UNL1       -0.2355
     25 C         143.8751  133.7911  157.7034 C.3     1  UNL1        0.1552
     26 C         137.6243  140.6527  163.0314 C.3     1  UNL1        0.1639
     27 C         137.7623  143.2471  163.0198 C.3     1  UNL1        0.1742
     28 O         137.1465  141.9767  162.5131 O.3     1  UNL1       -0.3493
     29 C         138.9424  138.3017  164.3489 C.3     1  UNL1        0.1207
     30 C         139.5384  138.8976  165.5898 C.ar    1  UNL1        0.0001
     31 C         141.0056  139.2050  165.6442 C.ar    1  UNL1       -0.0002
     32 C         141.6016  139.8009  166.8851 C.ar    1  UNL1        0.0317
     33 C         140.7303  140.0893  168.0716 C.ar    1  UNL1        0.1674
     34 F         141.3263  140.6851  169.3125 F       1  UNL1       -0.2018
     35 C         139.2633  139.7818  168.0173 C.ar    1  UNL1        0.1671
     36 F         138.3920  140.0702  169.2038 F       1  UNL1       -0.2018
     37 C         138.6672  139.1860  166.7763 C.ar    1  UNL1        0.0294
@<TRIPOS>BOND
     1    27    28    1
     2    28    26    1
     3     1    26    1
     4     1     2    1
     5     2     3    1
     6     3     4   ar
     7     4     5   ar
     8     5    11    1
     9    11    12   ar
    10    12    13   ar
    11    13    18    1
    12    18    20    1
    13    20    21   ar
    14    21    22   ar
    15    22    23   ar
    16    23    24   ar
    17    24    25    1
    18    13    14   ar
    19    14    15   ar
    20    15    16   ar
    21    16    17    1
    22     5     6   ar
    23     6     7   ar
    24     7     8    1
    25     8     9    2
    26     8    10   am
    27    10    29    1
    28    29    30    1
    29    30    31   ar
    30    31    32   ar
    31    32    33   ar
    32    33    34    1
    33    33    35   ar
    34    35    36    1
    35    35    37   ar
    36    10     1    1
    37    37    30   ar
    38     7     3   ar
    39    16    11   ar
    40    24    20   ar
    41    18    19    1
@<TRIPOS>MOLECULE
*****
 37 41 0 0 0
SMALL
GASTEIGER

@<TRIPOS>ATOM
      1 C         140.1709  143.6191  163.8523 C.3     1  UNL1        0.1281
      2 C         140.8253  144.5833  162.9076 C.3     1  UNL1        0.1299
      3 N         140.4538  144.5783  161.4544 N.ar    1  UNL1       -0.3048
      4 C         140.9261  145.4044  160.2949 C.ar    1  UNL1        0.0981
      5 C         140.1922  144.9458  159.0697 C.ar    1  UNL1        0.1176
      6 N         139.2664  143.8363  159.4719 N.ar    1  UNL1       -0.2211
      7 C         139.4280  143.6091  160.9458 C.ar    1  UNL1        0.1986
      8 C         138.7737  142.6451  161.8905 C.2     1  UNL1        0.2837
      9 O         137.7480  141.6759  161.3819 O.2     1  UNL1       -0.2666
     10 N         139.1452  142.6501  163.3437 N.am    1  UNL1       -0.2667
     11 C         140.3555  145.4995  157.6852 C.ar    1  UNL1        0.1008
     12 N         139.3791  146.5108  157.1619 N.ar    1  UNL1       -0.2123
     13 C         139.5425  147.0645  155.7774 C.ar    1  UNL1        0.2218
     14 N         140.6821  146.6069  154.9162 N.ar    1  UNL1       -0.2123
     15 C         141.6585  145.5955  155.4395 C.ar    1  UNL1        0.0991
     16 C         141.4952  145.0419  156.8240 C.ar    1  UNL1        0.0166
     17 C         142.4716  144.0305  157.3473 C.3     1  UNL1        0.0343
     18 N         138.5661  148.0758  155.2541 N.pl3   1  UNL1       -0.2681
     19 H         137.7411  147.7780  154.8070 H       1  UNL1        0.1565
     20 C         138.8466  149.5409  155.4120 C.ar    1  UNL1        0.1328
     21 C         139.3977  150.4520  154.3556 C.ar    1  UNL1        0.0565
     22 C         139.5169  151.8263  154.9449 C.ar    1  UNL1        0.1230
     23 N         139.0395  151.7645  156.3656 N.ar    1  UNL1       -0.1665
     24 N         138.6252  150.3521  156.6543 N.ar    1  UNL1       -0.2355
     25 C         138.0844  149.8406  157.9566 C.3     1  UNL1        0.1552
     26 C         140.5424  143.6242  165.3056 C.3     1  UNL1        0.1639
     27 C         141.6160  141.7667  166.7710 C.3     1  UNL1        0.1742
     28 O         141.7565  142.8768  165.7720 O.3     1  UNL1       -0.3493
     29 C         138.4909  141.6860  164.2884 C.3     1  UNL1        0.1207
     30 C         139.0518  140.3053  164.4587 C.ar    1  UNL1        0.0001
     31 C         140.3928  139.9638  163.8797 C.ar    1  UNL1       -0.0002
     32 C         140.9538  138.5831  164.0499 C.ar    1  UNL1        0.0317
     33 C         140.1737  137.5438  164.7992 C.ar    1  UNL1        0.1674
     34 F         140.7347  136.1631  164.9694 F       1  UNL1       -0.2018
     35 C         138.8328  137.8852  165.3782 C.ar    1  UNL1        0.1671
     36 F         138.0527  136.8460  166.1275 F       1  UNL1       -0.2018
     37 C         138.2718  139.2660  165.2079 C.ar    1  UNL1        0.0294
@<TRIPOS>BOND
     1    27    28    1
     2    28    26    1
     3     1    26    1
     4     1     2    1
     5     2     3    1
     6     3     4   ar
     7     4     5   ar
     8     5    11    1
     9    11    12   ar
    10    12    13   ar
    11    13    18    1
    12    18    20    1
    13    20    21   ar
    14    21    22   ar
    15    22    23   ar
    16    23    24   ar
    17    24    25    1
    18    13    14   ar
    19    14    15   ar
    20    15    16   ar
    21    16    17    1
    22     5     6   ar
    23     6     7   ar
    24     7     8    1
    25     8     9    2
    26     8    10   am
    27    10    29    1
    28    29    30    1
    29    30    31   ar
    30    31    32   ar
    31    32    33   ar
    32    33    34    1
    33    33    35   ar
    34    35    36    1
    35    35    37   ar
    36    10     1    1
    37    37    30   ar
    38     7     3   ar
    39    16    11   ar
    40    24    20   ar
    41    18    19    1
@<TRIPOS>MOLECULE
*****
 37 41 0 0 0
SMALL
GASTEIGER

@<TRIPOS>ATOM
      1 C         142.0198  139.2436  163.5495 C.3     1  UNL1        0.1281
      2 C         142.0256  139.5417  162.0793 C.3     1  UNL1        0.1299
      3 N         140.7799  140.0429  161.4109 N.ar    1  UNL1       -0.3048
      4 C         140.4858  140.4190  159.9889 C.ar    1  UNL1        0.0981
      5 C         139.0525  140.8546  159.9117 C.ar    1  UNL1        0.1176
      6 N         138.4608  140.7478  161.2859 N.ar    1  UNL1       -0.2211
      7 C         139.5284  140.2461  162.2125 C.ar    1  UNL1        0.1986
      8 C         139.5227  139.9480  163.6825 C.2     1  UNL1        0.2837
      9 O         138.2712  140.1511  164.4841 O.2     1  UNL1       -0.2666
     10 N         140.7684  139.4467  164.3510 N.am    1  UNL1       -0.2667
     11 C         138.3366  141.3161  158.6770 C.ar    1  UNL1        0.1008
     12 N         137.3292  140.4227  158.0160 N.ar    1  UNL1       -0.2123
     13 C         136.6133  140.8843  156.7813 C.ar    1  UNL1        0.2218
     14 N         136.9048  142.2392  156.2075 N.ar    1  UNL1       -0.2123
     15 C         137.9122  143.1327  156.8685 C.ar    1  UNL1        0.0991
     16 C         138.6281  142.6711  158.1033 C.ar    1  UNL1        0.0166
     17 C         139.6355  143.5645  158.7642 C.3     1  UNL1        0.0343
     18 N         135.6059  139.9909  156.1203 N.pl3   1  UNL1       -0.2681
     19 H         135.9039  139.1891  155.6327 H       1  UNL1        0.1565
     20 C         134.1445  140.3189  156.2021 C.ar    1  UNL1        0.1328
     21 C         133.3773  141.1738  155.2374 C.ar    1  UNL1        0.0565
     22 C         131.9524  141.2327  155.7020 C.ar    1  UNL1        0.1230
     23 N         131.8387  140.4143  156.9540 N.ar    1  UNL1       -0.1665
     24 N         133.1936  139.8494  157.2630 N.ar    1  UNL1       -0.2355
     25 C         133.5372  138.9697  158.4283 C.3     1  UNL1        0.1552
     26 C         143.2656  138.7423  164.2180 C.3     1  UNL1        0.1639
     27 C         144.7243  140.8765  163.9582 C.3     1  UNL1        0.1742
     28 O         144.5880  139.3833  163.9172 O.3     1  UNL1       -0.3493
     29 C         140.7626  139.1487  165.8211 C.3     1  UNL1        0.1207
     30 C         140.9906  140.2524  166.8110 C.ar    1  UNL1        0.0001
     31 C         142.2149  141.1127  166.7064 C.ar    1  UNL1       -0.0002
     32 C         142.4429  142.2164  167.6963 C.ar    1  UNL1        0.0317
     33 C         141.4464  142.4598  168.7908 C.ar    1  UNL1        0.1674
     34 F         141.6744  143.5635  169.7807 F       1  UNL1       -0.2018
     35 C         140.2222  141.5995  168.8955 C.ar    1  UNL1        0.1671
     36 F         139.2258  141.8428  169.9900 F       1  UNL1       -0.2018
     37 C         139.9942  140.4958  167.9055 C.ar    1  UNL1        0.0294
@<TRIPOS>BOND
     1    27    28    1
     2    28    26    1
     3     1    26    1
     4     1     2    1
     5     2     3    1
     6     3     4   ar
     7     4     5   ar
     8     5    11    1
     9    11    12   ar
    10    12    13   ar
    11    13    18    1
    12    18    20    1
    13    20    21   ar
    14    21    22   ar
    15    22    23   ar
    16    23    24   ar
    17    24    25    1
    18    13    14   ar
    19    14    15   ar
    20    15    16   ar
    21    16    17    1
    22     5     6   ar
    23     6     7   ar
    24     7     8    1
    25     8     9    2
    26     8    10   am
    27    10    29    1
    28    29    30    1
    29    30    31   ar
    30    31    32   ar
    31    32    33   ar
    32    33    34    1
    33    33    35   ar
    34    35    36    1
    35    35    37   ar
    36    10     1    1
    37    37    30   ar
    38     7     3   ar
    39    16    11   ar
    40    24    20   ar
    41    18    19    1
@<TRIPOS>MOLECULE
*****
 37 41 0 0 0
SMALL
GASTEIGER

@<TRIPOS>ATOM
      1 C         138.9913  142.3603  163.7743 C.3     1  UNL1        0.1281
      2 C         138.6833  142.3799  162.3063 C.3     1  UNL1        0.1299
      3 N         139.3872  143.3508  161.4053 N.ar    1  UNL1       -0.3048
      4 C         139.2919  143.6007  159.9294 C.ar    1  UNL1        0.0981
      5 C         140.2448  144.7065  159.5841 C.ar    1  UNL1        0.1176
      6 N         140.9290  145.1400  160.8466 N.ar    1  UNL1       -0.2211
      7 C         140.3989  144.3021  161.9722 C.ar    1  UNL1        0.1986
      8 C         140.7068  144.2825  163.4402 C.2     1  UNL1        0.2837
      9 O         141.7186  145.2338  164.0071 O.2     1  UNL1       -0.2666
     10 N         140.0030  143.3115  164.3412 N.am    1  UNL1       -0.2667
     11 C         140.4734  145.2784  158.2164 C.ar    1  UNL1        0.1008
     12 N         139.4682  146.2176  157.6185 N.ar    1  UNL1       -0.2123
     13 C         139.6969  146.7895  156.2507 C.ar    1  UNL1        0.2218
     14 N         140.9308  146.4222  155.4809 N.ar    1  UNL1       -0.2123
     15 C         141.9360  145.4831  156.0788 C.ar    1  UNL1        0.0991
     16 C         141.7073  144.9112  157.4465 C.ar    1  UNL1        0.0166
     17 C         142.7126  143.9721  158.0444 C.3     1  UNL1        0.0343
     18 N         138.6917  147.7286  155.6529 N.pl3   1  UNL1       -0.2681
     19 H         137.8735  147.3736  155.2359 H       1  UNL1        0.1565
     20 C         138.9329  149.2087  155.6903 C.ar    1  UNL1        0.1328
     21 C         139.5545  150.0286  154.5988 C.ar    1  UNL1        0.0565
     22 C         139.6005  151.4552  155.0597 C.ar    1  UNL1        0.1230
     23 N         139.0074  151.5171  156.4361 N.ar    1  UNL1       -0.1665
     24 N         138.5947  150.1286  156.8258 N.ar    1  UNL1       -0.2355
     25 C         137.9561  149.7301  158.1232 C.3     1  UNL1        0.1552
     26 C         138.2874  141.3893  164.6754 C.3     1  UNL1        0.1639
     27 C         138.6570  139.0990  165.8449 C.3     1  UNL1        0.1742
     28 O         138.6045  139.9254  164.5943 O.3     1  UNL1       -0.3493
     29 C         140.3109  143.2920  165.8091 C.3     1  UNL1        0.1207
     30 C         140.9959  142.1034  166.4159 C.ar    1  UNL1        0.0001
     31 C         140.5736  141.6022  167.7652 C.ar    1  UNL1       -0.0002
     32 C         141.2586  140.4137  168.3719 C.ar    1  UNL1        0.0317
     33 C         142.3660  139.7263  167.6293 C.ar    1  UNL1        0.1674
     34 F         143.0510  138.5378  168.2361 F       1  UNL1       -0.2018
     35 C         142.7883  140.2274  166.2802 C.ar    1  UNL1        0.1671
     36 F         143.8956  139.5401  165.5375 F       1  UNL1       -0.2018
     37 C         142.1032  141.4161  165.6734 C.ar    1  UNL1        0.0294
@<TRIPOS>BOND
     1    27    28    1
     2    28    26    1
     3     1    26    1
     4     1     2    1
     5     2     3    1
     6     3     4   ar
     7     4     5   ar
     8     5    11    1
     9    11    12   ar
    10    12    13   ar
    11    13    18    1
    12    18    20    1
    13    20    21   ar
    14    21    22   ar
    15    22    23   ar
    16    23    24   ar
    17    24    25    1
    18    13    14   ar
    19    14    15   ar
    20    15    16   ar
    21    16    17    1
    22     5     6   ar
    23     6     7   ar
    24     7     8    1
    25     8     9    2
    26     8    10   am
    27    10    29    1
    28    29    30    1
    29    30    31   ar
    30    31    32   ar
    31    32    33   ar
    32    33    34    1
    33    33    35   ar
    34    35    36    1
    35    35    37   ar
    36    10     1    1
    37    37    30   ar
    38     7     3   ar
    39    16    11   ar
    40    24    20   ar
    41    18    19    1
@<TRIPOS>MOLECULE
*****
 37 41 0 0 0
SMALL
GASTEIGER

@<TRIPOS>ATOM
      1 C         141.9077  138.4221  161.3292 C.3     1  UNL1        0.1281
      2 C         141.7409  139.1508  160.0287 C.3     1  UNL1        0.1299
      3 N         140.3726  139.5546  159.5654 N.ar    1  UNL1       -0.3048
      4 C         139.9010  140.2768  158.3383 C.ar    1  UNL1        0.0981
      5 C         138.4080  140.3982  158.4170 C.ar    1  UNL1        0.1176
      6 N         137.9569  139.7510  159.6928 N.ar    1  UNL1       -0.2211
      7 C         139.1711  139.2296  160.4026 C.ar    1  UNL1        0.1986
      8 C         139.3379  138.5009  161.7030 C.2     1  UNL1        0.2837
      9 O         138.1364  138.1759  162.5401 O.2     1  UNL1       -0.2666
     10 N         140.7063  138.0971  162.1663 N.am    1  UNL1       -0.2667
     11 C         137.5216  141.0520  157.3987 C.ar    1  UNL1        0.1008
     12 N         136.3621  140.2977  156.8188 N.ar    1  UNL1       -0.2123
     13 C         135.4758  140.9516  155.8005 C.ar    1  UNL1        0.2218
     14 N         135.7490  142.3598  155.3621 N.ar    1  UNL1       -0.2123
     15 C         136.9086  143.1142  155.9420 C.ar    1  UNL1        0.0991
     16 C         137.7949  142.4603  156.9603 C.ar    1  UNL1        0.0166
     17 C         138.9544  143.2147  157.5402 C.3     1  UNL1        0.0343
     18 N         134.3162  140.1972  155.2207 N.pl3   1  UNL1       -0.2681
     19 H         134.3321  139.9200  154.2761 H       1  UNL1        0.1565
     20 C         133.1323  139.8650  156.0799 C.ar    1  UNL1        0.1328
     21 C         133.0625  138.7659  157.0981 C.ar    1  UNL1        0.0565
     22 C         131.6974  138.7954  157.7191 C.ar    1  UNL1        0.1230
     23 N         130.9235  139.9128  157.0847 N.ar    1  UNL1       -0.1665
     24 N         131.8103  140.5739  156.0715 N.ar    1  UNL1       -0.2355
     25 C         131.4402  141.7392  155.2026 C.3     1  UNL1        0.1552
     26 C         143.2761  138.0183  161.7925 C.3     1  UNL1        0.1639
     27 C         144.0751  140.2789  162.7931 C.3     1  UNL1        0.1742
     28 O         144.3451  139.0559  161.9678 O.3     1  UNL1       -0.3493
     29 C         140.8730  137.3684  163.4668 C.3     1  UNL1        0.1207
     30 C         141.1545  138.1347  164.7251 C.ar    1  UNL1        0.0001
     31 C         142.5298  138.1152  165.3236 C.ar    1  UNL1       -0.0002
     32 C         142.8113  138.8815  166.5819 C.ar    1  UNL1        0.0317
     33 C         141.7173  139.6675  167.2419 C.ar    1  UNL1        0.1674
     34 F         141.9988  140.4339  168.5002 F       1  UNL1       -0.2018
     35 C         140.3421  139.6872  166.6435 C.ar    1  UNL1        0.1671
     36 F         139.2481  140.4731  167.3034 F       1  UNL1       -0.2018
     37 C         140.0606  138.9207  165.3851 C.ar    1  UNL1        0.0294
@<TRIPOS>BOND
     1    27    28    1
     2    28    26    1
     3     1    26    1
     4     1     2    1
     5     2     3    1
     6     3     4   ar
     7     4     5   ar
     8     5    11    1
     9    11    12   ar
    10    12    13   ar
    11    13    18    1
    12    18    20    1
    13    20    21   ar
    14    21    22   ar
    15    22    23   ar
    16    23    24   ar
    17    24    25    1
    18    13    14   ar
    19    14    15   ar
    20    15    16   ar
    21    16    17    1
    22     5     6   ar
    23     6     7   ar
    24     7     8    1
    25     8     9    2
    26     8    10   am
    27    10    29    1
    28    29    30    1
    29    30    31   ar
    30    31    32   ar
    31    32    33   ar
    32    33    34    1
    33    33    35   ar
    34    35    36    1
    35    35    37   ar
    36    10     1    1
    37    37    30   ar
    38     7     3   ar
    39    16    11   ar
    40    24    20   ar
    41    18    19    1
@<TRIPOS>MOLECULE
*****
 37 41 0 0 0
SMALL
GASTEIGER

@<TRIPOS>ATOM
      1 C         144.2495  141.8893  162.1593 C.3     1  UNL1        0.1281
      2 C         144.0323  141.6533  160.6939 C.3     1  UNL1        0.1299
      3 N         143.5729  140.3095  160.2108 N.ar    1  UNL1       -0.3048
      4 C         143.2763  139.7844  158.8374 C.ar    1  UNL1        0.0981
      5 C         142.8508  138.3522  158.9707 C.ar    1  UNL1        0.1176
      6 N         142.8846  137.9922  160.4265 N.ar    1  UNL1       -0.2211
      7 C         143.3309  139.2019  161.1929 C.ar    1  UNL1        0.1986
      8 C         143.5481  139.4380  162.6582 C.2     1  UNL1        0.2837
      9 O         143.3061  138.3304  163.6403 O.2     1  UNL1       -0.2666
     10 N         144.0075  140.7817  163.1413 N.am    1  UNL1       -0.2667
     11 C         142.4602  137.4401  157.8458 C.ar    1  UNL1        0.1008
     12 N         143.4017  136.3648  157.3907 N.ar    1  UNL1       -0.2123
     13 C         143.0110  135.4527  156.2657 C.ar    1  UNL1        0.2218
     14 N         141.6788  135.6159  155.5959 N.ar    1  UNL1       -0.2123
     15 C         140.7373  136.6912  156.0511 C.ar    1  UNL1        0.0991
     16 C         141.1280  137.6033  157.1760 C.ar    1  UNL1        0.0166
     17 C         140.1864  138.6786  157.6312 C.3     1  UNL1        0.0343
     18 N         143.9526  134.3774  155.8105 N.pl3   1  UNL1       -0.2681
     19 H         144.5881  134.5564  155.0802 H       1  UNL1        0.1565
     20 C         143.9259  133.0294  156.4680 C.ar    1  UNL1        0.1328
     21 C         144.9380  132.5033  157.4421 C.ar    1  UNL1        0.0565
     22 C         144.5200  131.1196  157.8429 C.ar    1  UNL1        0.1230
     23 N         143.2495  130.7904  157.1165 N.ar    1  UNL1       -0.1665
     24 N         142.8823  131.9708  156.2667 N.ar    1  UNL1       -0.2355
     25 C         141.6824  132.0744  155.3727 C.3     1  UNL1        0.1552
     26 C         144.7089  143.2331  162.6425 C.3     1  UNL1        0.1639
     27 C         143.1089  145.1189  163.4385 C.3     1  UNL1        0.1742
     28 O         143.8930  144.4562  162.3450 O.3     1  UNL1       -0.3493
     29 C         144.2247  141.0177  164.6067 C.3     1  UNL1        0.1207
     30 C         143.0527  141.0549  165.5421 C.ar    1  UNL1        0.0001
     31 C         142.8348  139.9353  166.5163 C.ar    1  UNL1       -0.0002
     32 C         141.6628  139.9724  167.4518 C.ar    1  UNL1        0.0317
     33 C         140.7087  141.1293  167.4130 C.ar    1  UNL1        0.1674
     34 F         139.5367  141.1664  168.3485 F       1  UNL1       -0.2018
     35 C         140.9266  142.2488  166.4390 C.ar    1  UNL1        0.1671
     36 F         139.9726  143.4057  166.4002 F       1  UNL1       -0.2018
     37 C         142.0987  142.2117  165.5035 C.ar    1  UNL1        0.0294
@<TRIPOS>BOND
     1    27    28    1
     2    28    26    1
     3     1    26    1
     4     1     2    1
     5     2     3    1
     6     3     4   ar
     7     4     5   ar
     8     5    11    1
     9    11    12   ar
    10    12    13   ar
    11    13    18    1
    12    18    20    1
    13    20    21   ar
    14    21    22   ar
    15    22    23   ar
    16    23    24   ar
    17    24    25    1
    18    13    14   ar
    19    14    15   ar
    20    15    16   ar
    21    16    17    1
    22     5     6   ar
    23     6     7   ar
    24     7     8    1
    25     8     9    2
    26     8    10   am
    27    10    29    1
    28    29    30    1
    29    30    31   ar
    30    31    32   ar
    31    32    33   ar
    32    33    34    1
    33    33    35   ar
    34    35    36    1
    35    35    37   ar
    36    10     1    1
    37    37    30   ar
    38     7     3   ar
    39    16    11   ar
    40    24    20   ar
    41    18    19    1
@<TRIPOS>MOLECULE
*****
 37 41 0 0 0
SMALL
GASTEIGER

@<TRIPOS>ATOM
      1 C         143.1052  141.4215  164.6465 C.3     1  UNL1        0.1281
      2 C         142.9831  141.5832  163.1602 C.3     1  UNL1        0.1299
      3 N         142.5657  140.4193  162.3110 N.ar    1  UNL1       -0.3048
      4 C         142.3607  140.2786  160.8318 C.ar    1  UNL1        0.0981
      5 C         141.9386  138.8662  160.5546 C.ar    1  UNL1        0.1176
      6 N         141.8827  138.1340  161.8626 N.ar    1  UNL1       -0.2211
      7 C         142.2702  139.0939  162.9481 C.ar    1  UNL1        0.1986
      8 C         142.3923  138.9323  164.4344 C.2     1  UNL1        0.2837
      9 O         142.0969  137.6068  165.0715 O.2     1  UNL1       -0.2666
     10 N         142.8098  140.0961  165.2835 N.am    1  UNL1       -0.2667
     11 C         141.6270  138.2875  159.2063 C.ar    1  UNL1        0.1008
     12 N         142.6393  137.4303  158.5059 N.ar    1  UNL1       -0.2123
     13 C         142.3277  136.8517  157.1575 C.ar    1  UNL1        0.2218
     14 N         141.0039  137.1302  156.5095 N.ar    1  UNL1       -0.2123
     15 C         139.9916  137.9874  157.2099 C.ar    1  UNL1        0.0991
     16 C         140.3032  138.5660  158.5583 C.ar    1  UNL1        0.0166
     17 C         139.2909  139.4232  159.2586 C.3     1  UNL1        0.0343
     18 N         143.3400  135.9945  156.4572 N.pl3   1  UNL1       -0.2681
     19 H         144.0593  136.4126  155.9308 H       1  UNL1        0.1565
     20 C         143.2564  134.5002  156.5587 C.ar    1  UNL1        0.1328
     21 C         144.0773  133.6307  157.4643 C.ar    1  UNL1        0.0565
     22 C         143.6654  132.2063  157.2377 C.ar    1  UNL1        0.1230
     23 N         142.5900  132.1954  156.1920 N.ar    1  UNL1       -0.1665
     24 N         142.3372  133.6132  155.7723 N.ar    1  UNL1       -0.2355
     25 C         141.3403  134.0646  154.7465 C.3     1  UNL1        0.1552
     26 C         143.5227  142.5855  165.4957 C.3     1  UNL1        0.1639
     27 C         143.8381  144.8310  164.2276 C.3     1  UNL1        0.1742
     28 O         144.4244  143.6419  164.9292 O.3     1  UNL1       -0.3493
     29 C         142.9319  139.9345  166.7698 C.3     1  UNL1        0.1207
     30 C         141.7113  140.0259  167.6369 C.ar    1  UNL1        0.0001
     31 C         140.3472  139.8832  167.0293 C.ar    1  UNL1       -0.0002
     32 C         139.1266  139.9747  167.8964 C.ar    1  UNL1        0.0317
     33 C         139.2701  140.2088  169.3711 C.ar    1  UNL1        0.1674
     34 F         138.0495  140.3003  170.2381 F       1  UNL1       -0.2018
     35 C         140.6340  140.3515  169.9786 C.ar    1  UNL1        0.1671
     36 F         140.7775  140.5857  171.4533 F       1  UNL1       -0.2018
     37 C         141.8547  140.2601  169.1115 C.ar    1  UNL1        0.0294
@<TRIPOS>BOND
     1    27    28    1
     2    28    26    1
     3     1    26    1
     4     1     2    1
     5     2     3    1
     6     3     4   ar
     7     4     5   ar
     8     5    11    1
     9    11    12   ar
    10    12    13   ar
    11    13    18    1
    12    18    20    1
    13    20    21   ar
    14    21    22   ar
    15    22    23   ar
    16    23    24   ar
    17    24    25    1
    18    13    14   ar
    19    14    15   ar
    20    15    16   ar
    21    16    17    1
    22     5     6   ar
    23     6     7   ar
    24     7     8    1
    25     8     9    2
    26     8    10   am
    27    10    29    1
    28    29    30    1
    29    30    31   ar
    30    31    32   ar
    31    32    33   ar
    32    33    34    1
    33    33    35   ar
    34    35    36    1
    35    35    37   ar
    36    10     1    1
    37    37    30   ar
    38     7     3   ar
    39    16    11   ar
    40    24    20   ar
    41    18    19    1
@<TRIPOS>MOLECULE
*****
 37 41 0 0 0
SMALL
GASTEIGER

@<TRIPOS>ATOM
      1 C         140.7218  137.9535  163.9099 C.3     1  UNL1        0.1281
      2 C         140.3289  137.9189  162.4626 C.3     1  UNL1        0.1299
      3 N         141.3397  138.2440  161.4031 N.ar    1  UNL1       -0.3048
      4 C         141.2452  138.2923  159.9069 C.ar    1  UNL1        0.0981
      5 C         142.5905  138.6819  159.3699 C.ar    1  UNL1        0.1176
      6 N         143.5165  138.8743  160.5342 N.ar    1  UNL1       -0.2211
      7 C         142.7434  138.6036  161.7908 C.ar    1  UNL1        0.1986
      8 C         143.1363  138.6382  163.2380 C.2     1  UNL1        0.2837
      9 O         144.5400  138.9978  163.6258 O.2     1  UNL1       -0.2666
     10 N         142.1254  138.3131  164.2975 N.am    1  UNL1       -0.2667
     11 C         142.9473  138.8496  157.9226 C.ar    1  UNL1        0.1008
     12 N         143.3333  137.6548  157.1020 N.ar    1  UNL1       -0.2123
     13 C         143.6901  137.8226  155.6547 C.ar    1  UNL1        0.2218
     14 N         143.6609  139.1851  155.0280 N.ar    1  UNL1       -0.2123
     15 C         143.2749  140.3799  155.8487 C.ar    1  UNL1        0.0991
     16 C         142.9181  140.2121  157.2960 C.ar    1  UNL1        0.0166
     17 C         142.5321  141.4069  158.1166 C.3     1  UNL1        0.0343
     18 N         144.0761  136.6278  154.8340 N.pl3   1  UNL1       -0.2681
     19 H         144.9499  136.6033  154.3811 H       1  UNL1        0.1565
     20 C         143.1309  135.4704  154.7035 C.ar    1  UNL1        0.1328
     21 C         142.1511  135.2536  153.5886 C.ar    1  UNL1        0.0565
     22 C         141.4142  133.9758  153.8610 C.ar    1  UNL1        0.1230
     23 N         141.9386  133.4028  155.1444 N.ar    1  UNL1       -0.1665
     24 N         142.9996  134.3266  155.6650 N.ar    1  UNL1       -0.2355
     25 C         143.7904  134.1394  156.9258 C.3     1  UNL1        0.1552
     26 C         139.7109  137.6284  164.9694 C.3     1  UNL1        0.1639
     27 C         138.0928  138.8356  166.6048 C.3     1  UNL1        0.1742
     28 O         138.5495  138.5479  165.2052 O.3     1  UNL1       -0.3493
     29 C         142.5184  138.3477  165.7448 C.3     1  UNL1        0.1207
     30 C         142.2761  139.5844  166.5583 C.ar    1  UNL1        0.0001
     31 C         141.5998  140.7704  165.9369 C.ar    1  UNL1       -0.0002
     32 C         141.3575  142.0072  166.7504 C.ar    1  UNL1        0.0317
     33 C         141.7917  142.0579  168.1854 C.ar    1  UNL1        0.1674
     34 F         141.5494  143.2947  168.9989 F       1  UNL1       -0.2018
     35 C         142.4680  140.8721  168.8067 C.ar    1  UNL1        0.1671
     36 F         142.9021  140.9227  170.2416 F       1  UNL1       -0.2018
     37 C         142.7102  139.6353  167.9932 C.ar    1  UNL1        0.0294
@<TRIPOS>BOND
     1    27    28    1
     2    28    26    1
     3     1    26    1
     4     1     2    1
     5     2     3    1
     6     3     4   ar
     7     4     5   ar
     8     5    11    1
     9    11    12   ar
    10    12    13   ar
    11    13    18    1
    12    18    20    1
    13    20    21   ar
    14    21    22   ar
    15    22    23   ar
    16    23    24   ar
    17    24    25    1
    18    13    14   ar
    19    14    15   ar
    20    15    16   ar
    21    16    17    1
    22     5     6   ar
    23     6     7   ar
    24     7     8    1
    25     8     9    2
    26     8    10   am
    27    10    29    1
    28    29    30    1
    29    30    31   ar
    30    31    32   ar
    31    32    33   ar
    32    33    34    1
    33    33    35   ar
    34    35    36    1
    35    35    37   ar
    36    10     1    1
    37    37    30   ar
    38     7     3   ar
    39    16    11   ar
    40    24    20   ar
    41    18    19    1
@<TRIPOS>MOLECULE
*****
 37 41 0 0 0
SMALL
GASTEIGER

@<TRIPOS>ATOM
      1 C         141.6979  142.1761  162.9234 C.3     1  UNL1        0.1281
      2 C         141.6427  141.6893  161.5056 C.3     1  UNL1        0.1299
      3 N         140.4287  141.9589  160.6669 N.ar    1  UNL1       -0.3048
      4 C         140.0898  141.6058  159.2490 C.ar    1  UNL1        0.0981
      5 C         138.7216  142.1440  158.9517 C.ar    1  UNL1        0.1176
      6 N         138.2149  142.8297  160.1859 N.ar    1  UNL1       -0.2211
      7 C         139.2699  142.7153  161.2459 C.ar    1  UNL1        0.1986
      8 C         139.3253  143.2021  162.6637 C.2     1  UNL1        0.2837
      9 O         138.1665  143.9585  163.2427 O.2     1  UNL1       -0.2666
     10 N         140.5393  142.9325  163.5024 N.am    1  UNL1       -0.2667
     11 C         137.9887  142.0186  157.6489 C.ar    1  UNL1        0.1008
     12 N         136.9394  140.9606  157.4775 N.ar    1  UNL1       -0.2123
     13 C         136.2065  140.8352  156.1747 C.ar    1  UNL1        0.2218
     14 N         136.5230  141.7679  155.0434 N.ar    1  UNL1       -0.2123
     15 C         137.5724  142.8259  155.2148 C.ar    1  UNL1        0.0991
     16 C         138.3052  142.9513  156.5176 C.ar    1  UNL1        0.0166
     17 C         139.3545  144.0093  156.6890 C.3     1  UNL1        0.0343
     18 N         135.1572  139.7772  156.0033 N.pl3   1  UNL1       -0.2681
     19 H         135.4174  138.8626  155.7484 H       1  UNL1        0.1565
     20 C         133.7113  140.1126  156.2203 C.ar    1  UNL1        0.1328
     21 C         132.8889  141.0499  155.3866 C.ar    1  UNL1        0.0565
     22 C         131.5034  141.0861  155.9601 C.ar    1  UNL1        0.1230
     23 N         131.4694  140.1711  157.1483 N.ar    1  UNL1       -0.1665
     24 N         132.8340  139.5695  157.3091 N.ar    1  UNL1       -0.2355
     25 C         133.2486  138.5957  158.3720 C.3     1  UNL1        0.1552
     26 C         142.9120  141.9066  163.7622 C.3     1  UNL1        0.1639
     27 C         142.7481  139.6659  165.0671 C.3     1  UNL1        0.1742
     28 O         143.3718  140.4962  163.9847 O.3     1  UNL1       -0.3493
     29 C         140.5945  143.4194  164.9201 C.3     1  UNL1        0.1207
     30 C         140.3979  142.4553  166.0523 C.ar    1  UNL1        0.0001
     31 C         141.0964  142.6818  167.3603 C.ar    1  UNL1       -0.0002
     32 C         140.8998  141.7177  168.4925 C.ar    1  UNL1        0.0317
     33 C         140.0047  140.5269  168.3167 C.ar    1  UNL1        0.1674
     34 F         139.8081  139.5628  169.4488 F       1  UNL1       -0.2018
     35 C         139.3062  140.3004  167.0088 C.ar    1  UNL1        0.1671
     36 F         138.4110  139.1097  166.8329 F       1  UNL1       -0.2018
     37 C         139.5028  141.2645  165.8765 C.ar    1  UNL1        0.0294
@<TRIPOS>BOND
     1    27    28    1
     2    28    26    1
     3     1    26    1
     4     1     2    1
     5     2     3    1
     6     3     4   ar
     7     4     5   ar
     8     5    11    1
     9    11    12   ar
    10    12    13   ar
    11    13    18    1
    12    18    20    1
    13    20    21   ar
    14    21    22   ar
    15    22    23   ar
    16    23    24   ar
    17    24    25    1
    18    13    14   ar
    19    14    15   ar
    20    15    16   ar
    21    16    17    1
    22     5     6   ar
    23     6     7   ar
    24     7     8    1
    25     8     9    2
    26     8    10   am
    27    10    29    1
    28    29    30    1
    29    30    31   ar
    30    31    32   ar
    31    32    33   ar
    32    33    34    1
    33    33    35   ar
    34    35    36    1
    35    35    37   ar
    36    10     1    1
    37    37    30   ar
    38     7     3   ar
    39    16    11   ar
    40    24    20   ar
    41    18    19    1
