@<TRIPOS>MOLECULE
*****
 29 32 0 0 0
SMALL
GASTEIGER

@<TRIPOS>ATOM
      1 O         143.9903  143.1770  166.9646 O.3     1  UNL1       -0.3771
      2 C         142.9128  142.3601  166.3153 C.3     1  UNL1        0.1421
      3 H         143.9564  143.0515  167.9258 H       1  UNL1        0.2112
      4 C         143.4978  142.6599  164.9671 C.ar    1  UNL1        0.0261
      5 C         143.3672  144.0348  164.3818 C.ar    1  UNL1        0.0015
      6 C         143.9522  144.3347  163.0334 C.ar    1  UNL1        0.0204
      7 C         144.6679  143.2597  162.2705 C.ar    1  UNL1        0.0989
      8 N         144.7986  141.8848  162.8558 N.ar    1  UNL1       -0.2426
      9 C         144.2136  141.5849  164.2041 C.ar    1  UNL1        0.0972
     10 C         142.3278  142.0602  167.6637 C.ar    1  UNL1        0.0261
     11 C         141.1435  142.8373  168.1570 C.ar    1  UNL1        0.0015
     12 C         140.5586  142.5374  169.5053 C.ar    1  UNL1        0.0204
     13 C         141.1579  141.4604  170.3602 C.ar    1  UNL1        0.0989
     14 N         142.3422  140.6833  169.8668 N.ar    1  UNL1       -0.2426
     15 C         142.9272  140.9832  168.5186 C.ar    1  UNL1        0.0972
     16 C         141.8353  141.5431  165.6661 C.3     1  UNL1        0.0947
     17 N         140.8045  142.2103  164.8045 N.3     1  UNL1       -0.2668
     18 C         140.6039  141.7580  163.3885 C.3     1  UNL1        0.1047
     19 C         139.5731  142.4252  162.5268 C.3     1  UNL1        0.1595
     20 O         138.7429  143.5447  163.0813 O.3     1  UNL1       -0.3508
     21 C         138.9435  143.9970  164.4974 C.3     1  UNL1        0.1595
     22 C         139.9743  143.3298  165.3590 C.3     1  UNL1        0.1047
     23 C         141.7886  140.0590  165.8784 C.3     1  UNL1        0.0454
     24 C         140.4690  139.3676  166.0540 C.ar    1  UNL1       -0.0207
     25 C         140.0657  138.2711  165.1134 C.ar    1  UNL1       -0.0042
     26 C         138.7461  137.5798  165.2890 C.ar    1  UNL1       -0.0003
     27 C         137.8298  137.9850  166.4053 C.ar    1  UNL1       -0.0000
     28 C         138.2332  139.0817  167.3460 C.ar    1  UNL1       -0.0003
     29 C         139.5527  139.7729  167.1704 C.ar    1  UNL1       -0.0042
@<TRIPOS>BOND
     1     1     2    1
     2     2     4    1
     3     4     5   ar
     4     5     6   ar
     5     6     7   ar
     6     7     8   ar
     7     8     9   ar
     8     2    10    1
     9    10    11   ar
    10    11    12   ar
    11    12    13   ar
    12    13    14   ar
    13    14    15   ar
    14     2    16    1
    15    16    23    1
    16    23    24    1
    17    24    25   ar
    18    25    26   ar
    19    26    27   ar
    20    27    28   ar
    21    28    29   ar
    22    16    17    1
    23    17    18    1
    24    18    19    1
    25    19    20    1
    26    20    21    1
    27    21    22    1
    28     9     4   ar
    29    15    10   ar
    30    29    24   ar
    31    22    17    1
    32     1     3    1
@<TRIPOS>MOLECULE
*****
 29 32 0 0 0
SMALL
GASTEIGER

@<TRIPOS>ATOM
      1 O         144.0089  143.1763  166.9621 O.3     1  UNL1       -0.3771
      2 C         142.9297  142.3575  166.3182 C.3     1  UNL1        0.1421
      3 H         144.5081  143.6489  166.2778 H       1  UNL1        0.2112
      4 C         142.3445  142.0669  167.6683 C.ar    1  UNL1        0.0261
      5 C         141.1522  142.8387  168.1509 C.ar    1  UNL1        0.0015
      6 C         140.5670  142.5480  169.5012 C.ar    1  UNL1        0.0204
      7 C         141.1741  141.4857  170.3688 C.ar    1  UNL1        0.0989
      8 N         142.3664  140.7140  169.8863 N.ar    1  UNL1       -0.2426
      9 C         142.9516  141.0045  168.5361 C.ar    1  UNL1        0.0972
     10 C         143.5150  142.6481  164.9679 C.ar    1  UNL1        0.0261
     11 C         143.3932  144.0216  164.3776 C.ar    1  UNL1        0.0015
     12 C         143.9784  144.3122  163.0274 C.ar    1  UNL1        0.0204
     13 C         144.6855  143.2292  162.2676 C.ar    1  UNL1        0.0989
     14 N         144.8073  141.8557  162.8579 N.ar    1  UNL1       -0.2426
     15 C         144.2220  141.5652  164.2081 C.ar    1  UNL1        0.0972
     16 C         141.8505  141.5387  165.6742 C.3     1  UNL1        0.0947
     17 N         140.8227  142.2022  164.8060 N.3     1  UNL1       -0.2668
     18 C         139.9861  143.3197  165.3546 C.3     1  UNL1        0.1047
     19 C         138.9583  143.9832  164.4864 C.3     1  UNL1        0.1595
     20 O         138.7673  143.5290  163.0696 O.3     1  UNL1       -0.3508
     21 C         139.6041  142.4114  162.5210 C.3     1  UNL1        0.1595
     22 C         140.6317  141.7480  163.3892 C.3     1  UNL1        0.1047
     23 C         141.7989  140.0564  165.8983 C.3     1  UNL1        0.0454
     24 C         140.4762  139.3688  166.0656 C.ar    1  UNL1       -0.0207
     25 C         140.0681  138.2856  165.1117 C.ar    1  UNL1       -0.0042
     26 C         138.7455  137.5979  165.2790 C.ar    1  UNL1       -0.0003
     27 C         137.8311  137.9936  166.4003 C.ar    1  UNL1       -0.0000
     28 C         138.2392  139.0769  167.3542 C.ar    1  UNL1       -0.0003
     29 C         139.5618  139.7645  167.1869 C.ar    1  UNL1       -0.0042
@<TRIPOS>BOND
     1     1     2    1
     2     2     4    1
     3     4     5   ar
     4     5     6   ar
     5     6     7   ar
     6     7     8   ar
     7     8     9   ar
     8     2    10    1
     9    10    11   ar
    10    11    12   ar
    11    12    13   ar
    12    13    14   ar
    13    14    15   ar
    14     2    16    1
    15    16    23    1
    16    23    24    1
    17    24    25   ar
    18    25    26   ar
    19    26    27   ar
    20    27    28   ar
    21    28    29   ar
    22    16    17    1
    23    17    18    1
    24    18    19    1
    25    19    20    1
    26    20    21    1
    27    21    22    1
    28     9     4   ar
    29    15    10   ar
    30    29    24   ar
    31    22    17    1
    32     1     3    1
@<TRIPOS>MOLECULE
*****
 29 32 0 0 0
SMALL
GASTEIGER

@<TRIPOS>ATOM
      1 O         143.3575  138.7803  167.4114 O.3     1  UNL1       -0.3771
      2 C         142.5901  139.9252  166.8197 C.3     1  UNL1        0.1421
      3 H         143.2796  138.8041  168.3780 H       1  UNL1        0.2112
      4 C         142.7845  139.3472  165.4493 C.ar    1  UNL1        0.0261
      5 C         141.6479  138.6521  164.7602 C.ar    1  UNL1        0.0015
      6 C         141.8424  138.0741  163.3897 C.ar    1  UNL1        0.0204
      7 C         143.1735  138.1913  162.7084 C.ar    1  UNL1        0.0989
      8 N         144.3102  138.8864  163.3974 N.ar    1  UNL1       -0.2426
      9 C         144.1157  139.4644  164.7678 C.ar    1  UNL1        0.0972
     10 C         142.3956  140.5032  168.1902 C.ar    1  UNL1        0.0261
     11 C         143.0932  141.7744  168.5740 C.ar    1  UNL1        0.0015
     12 C         142.8987  142.3523  169.9444 C.ar    1  UNL1        0.0204
     13 C         142.0067  141.6589  170.9311 C.ar    1  UNL1        0.0989
     14 N         141.3091  140.3877  170.5473 N.ar    1  UNL1       -0.2426
     15 C         141.5036  139.8098  169.1769 C.ar    1  UNL1        0.0972
     16 C         141.8226  141.0701  166.2279 C.3     1  UNL1        0.0947
     17 N         142.4943  142.0067  165.2678 N.3     1  UNL1       -0.2668
     18 C         142.0617  142.0463  163.8321 C.3     1  UNL1        0.1047
     19 C         142.7334  142.9829  162.8720 C.3     1  UNL1        0.1595
     20 O         143.8375  143.8799  163.3477 O.3     1  UNL1       -0.3508
     21 C         144.2700  143.8403  164.7835 C.3     1  UNL1        0.1595
     22 C         143.5984  142.9037  165.7435 C.3     1  UNL1        0.1047
     23 C         140.3835  141.2784  166.5962 C.3     1  UNL1        0.0454
     24 C         139.5364  142.2289  165.8031 C.ar    1  UNL1       -0.0207
     25 C         138.5692  141.7012  164.7853 C.ar    1  UNL1       -0.0042
     26 C         137.7221  142.6518  163.9921 C.ar    1  UNL1       -0.0003
     27 C         137.8422  144.1300  164.2169 C.ar    1  UNL1       -0.0000
     28 C         138.8095  144.6576  165.2348 C.ar    1  UNL1       -0.0003
     29 C         139.6565  143.7071  166.0279 C.ar    1  UNL1       -0.0042
@<TRIPOS>BOND
     1     1     2    1
     2     2     4    1
     3     4     5   ar
     4     5     6   ar
     5     6     7   ar
     6     7     8   ar
     7     8     9   ar
     8     2    10    1
     9    10    11   ar
    10    11    12   ar
    11    12    13   ar
    12    13    14   ar
    13    14    15   ar
    14     2    16    1
    15    16    23    1
    16    23    24    1
    17    24    25   ar
    18    25    26   ar
    19    26    27   ar
    20    27    28   ar
    21    28    29   ar
    22    16    17    1
    23    17    18    1
    24    18    19    1
    25    19    20    1
    26    20    21    1
    27    21    22    1
    28     9     4   ar
    29    15    10   ar
    30    29    24   ar
    31    22    17    1
    32     1     3    1
@<TRIPOS>MOLECULE
*****
 29 32 0 0 0
SMALL
GASTEIGER

@<TRIPOS>ATOM
      1 O         143.3463  138.7793  167.4270 O.3     1  UNL1       -0.3771
      2 C         142.5853  139.9287  166.8357 C.3     1  UNL1        0.1421
      3 H         143.7530  138.2606  166.7154 H       1  UNL1        0.2112
      4 C         142.3925  140.5063  168.2066 C.ar    1  UNL1        0.0261
      5 C         143.0975  141.7727  168.5927 C.ar    1  UNL1        0.0015
      6 C         142.9047  142.3503  169.9637 C.ar    1  UNL1        0.0204
      7 C         142.0070  141.6614  170.9483 C.ar    1  UNL1        0.0989
      8 N         141.3021  140.3950  170.5621 N.ar    1  UNL1       -0.2426
      9 C         141.4948  139.8174  169.1913 C.ar    1  UNL1        0.0972
     10 C         142.7780  139.3510  165.4648 C.ar    1  UNL1        0.0261
     11 C         141.6387  138.6616  164.7745 C.ar    1  UNL1        0.0015
     12 C         141.8315  138.0840  163.4037 C.ar    1  UNL1        0.0204
     13 C         143.1636  138.1958  162.7232 C.ar    1  UNL1        0.0989
     14 N         144.3029  138.8852  163.4136 N.ar    1  UNL1       -0.2426
     15 C         144.1101  139.4629  164.7844 C.ar    1  UNL1        0.0972
     16 C         141.8243  141.0781  166.2444 C.3     1  UNL1        0.0947
     17 N         142.5014  142.0119  165.2854 N.3     1  UNL1       -0.2668
     18 C         142.0736  142.0510  163.8483 C.3     1  UNL1        0.1047
     19 C         142.7508  142.9848  162.8893 C.3     1  UNL1        0.1595
     20 O         143.8557  143.8794  163.3675 O.3     1  UNL1       -0.3508
     21 C         144.2835  143.8403  164.8048 C.3     1  UNL1        0.1595
     22 C         143.6064  142.9065  165.7637 C.3     1  UNL1        0.1047
     23 C         140.3861  141.2938  166.6121 C.3     1  UNL1        0.0454
     24 C         139.5408  142.2391  165.8108 C.ar    1  UNL1       -0.0207
     25 C         138.5739  141.7045  164.7962 C.ar    1  UNL1       -0.0042
     26 C         137.7286  142.6498  163.9949 C.ar    1  UNL1       -0.0003
     27 C         137.8502  144.1295  164.2082 C.ar    1  UNL1       -0.0000
     28 C         138.8172  144.6641  165.2228 C.ar    1  UNL1       -0.0003
     29 C         139.6624  143.7189  166.0241 C.ar    1  UNL1       -0.0042
@<TRIPOS>BOND
     1     1     2    1
     2     2     4    1
     3     4     5   ar
     4     5     6   ar
     5     6     7   ar
     6     7     8   ar
     7     8     9   ar
     8     2    10    1
     9    10    11   ar
    10    11    12   ar
    11    12    13   ar
    12    13    14   ar
    13    14    15   ar
    14     2    16    1
    15    16    23    1
    16    23    24    1
    17    24    25   ar
    18    25    26   ar
    19    26    27   ar
    20    27    28   ar
    21    28    29   ar
    22    16    17    1
    23    17    18    1
    24    18    19    1
    25    19    20    1
    26    20    21    1
    27    21    22    1
    28     9     4   ar
    29    15    10   ar
    30    29    24   ar
    31    22    17    1
    32     1     3    1
@<TRIPOS>MOLECULE
*****
 29 32 0 0 0
SMALL
GASTEIGER

@<TRIPOS>ATOM
      1 O         142.8774  140.7766  168.3934 O.3     1  UNL1       -0.3771
      2 C         141.7897  141.1983  167.4505 C.3     1  UNL1        0.1421
      3 H         143.6565  140.5009  167.8857 H       1  UNL1        0.2112
      4 C         140.9925  141.7262  168.6062 C.ar    1  UNL1        0.0261
      5 C         141.2106  143.1296  169.0890 C.ar    1  UNL1        0.0015
      6 C         140.4133  143.6575  170.2448 C.ar    1  UNL1        0.0204
      7 C         139.3980  142.7821  170.9177 C.ar    1  UNL1        0.0989
      8 N         139.1800  141.3788  170.4349 N.ar    1  UNL1       -0.2426
      9 C         139.9772  140.8508  169.2792 C.ar    1  UNL1        0.0972
     10 C         142.5870  140.6703  166.2948 C.ar    1  UNL1        0.0261
     11 C         143.2561  141.6221  165.3481 C.ar    1  UNL1        0.0015
     12 C         144.0533  141.0941  164.1925 C.ar    1  UNL1        0.0204
     13 C         144.1815  139.6143  163.9835 C.ar    1  UNL1        0.0989
     14 N         143.5124  138.6624  164.9302 N.ar    1  UNL1       -0.2426
     15 C         142.7151  139.1905  166.0858 C.ar    1  UNL1        0.0972
     16 C         140.7021  141.6200  166.5076 C.3     1  UNL1        0.0947
     17 N         140.0075  140.5971  165.6583 N.3     1  UNL1       -0.2668
     18 C         139.1233  139.5674  166.2968 C.3     1  UNL1        0.1047
     19 C         138.4287  138.5445  165.4475 C.3     1  UNL1        0.1595
     20 O         138.6183  138.5515  163.9595 O.3     1  UNL1       -0.3508
     21 C         139.5025  139.5814  163.3209 C.3     1  UNL1        0.1595
     22 C         140.1970  140.6041  164.1703 C.3     1  UNL1        0.1047
     23 C         140.3090  143.0645  166.4140 C.3     1  UNL1        0.0454
     24 C         139.8967  143.6456  165.0940 C.ar    1  UNL1       -0.0207
     25 C         138.4477  143.6761  164.7077 C.ar    1  UNL1       -0.0042
     26 C         138.0354  144.2572  163.3876 C.ar    1  UNL1       -0.0003
     27 C         139.0723  144.8077  162.4539 C.ar    1  UNL1       -0.0000
     28 C         140.5214  144.7772  162.8403 C.ar    1  UNL1       -0.0003
     29 C         140.9336  144.1962  164.1603 C.ar    1  UNL1       -0.0042
@<TRIPOS>BOND
     1     1     2    1
     2     2     4    1
     3     4     5   ar
     4     5     6   ar
     5     6     7   ar
     6     7     8   ar
     7     8     9   ar
     8     2    10    1
     9    10    11   ar
    10    11    12   ar
    11    12    13   ar
    12    13    14   ar
    13    14    15   ar
    14     2    16    1
    15    16    23    1
    16    23    24    1
    17    24    25   ar
    18    25    26   ar
    19    26    27   ar
    20    27    28   ar
    21    28    29   ar
    22    16    17    1
    23    17    18    1
    24    18    19    1
    25    19    20    1
    26    20    21    1
    27    21    22    1
    28     9     4   ar
    29    15    10   ar
    30    29    24   ar
    31    22    17    1
    32     1     3    1
@<TRIPOS>MOLECULE
*****
 29 32 0 0 0
SMALL
GASTEIGER

@<TRIPOS>ATOM
      1 O         138.7437  139.4246  167.9457 O.3     1  UNL1       -0.3771
      2 C         139.8629  140.1795  167.2919 C.3     1  UNL1        0.1421
      3 H         138.2906  138.8800  167.2831 H       1  UNL1        0.2112
      4 C         140.3580  140.6128  168.6399 C.ar    1  UNL1        0.0261
      5 C         139.7247  141.7841  169.3306 C.ar    1  UNL1        0.0015
      6 C         140.2199  142.2174  170.6786 C.ar    1  UNL1        0.0204
      7 C         141.3483  141.4794  171.3359 C.ar    1  UNL1        0.0989
      8 N         141.9816  140.3081  170.6452 N.ar    1  UNL1       -0.2426
      9 C         141.4865  139.8748  169.2973 C.ar    1  UNL1        0.0972
     10 C         139.3677  139.7461  165.9439 C.ar    1  UNL1        0.0261
     11 C         138.5972  140.7040  165.0845 C.ar    1  UNL1        0.0015
     12 C         138.1020  140.2706  163.7365 C.ar    1  UNL1        0.0204
     13 C         138.3774  138.8794  163.2481 C.ar    1  UNL1        0.0989
     14 N         139.1480  137.9215  164.1075 N.ar    1  UNL1       -0.2426
     15 C         139.6431  138.3549  165.4554 C.ar    1  UNL1        0.0972
     16 C         140.9821  140.9344  166.6382 C.3     1  UNL1        0.0947
     17 N         142.0229  140.1976  165.8483 N.3     1  UNL1       -0.2668
     18 C         142.1639  140.4481  164.3761 C.3     1  UNL1        0.1047
     19 C         143.2048  139.7113  163.5863 C.3     1  UNL1        0.1595
     20 O         144.1045  138.7240  164.2686 O.3     1  UNL1       -0.3508
     21 C         143.9635  138.4735  165.7409 C.3     1  UNL1        0.1595
     22 C         142.9227  139.2103  166.5307 C.3     1  UNL1        0.1047
     23 C         141.0605  142.4262  166.7742 C.3     1  UNL1        0.0454
     24 C         140.5006  143.3080  165.6976 C.ar    1  UNL1       -0.0207
     25 C         139.1473  143.9321  165.8676 C.ar    1  UNL1       -0.0042
     26 C         138.5874  144.8139  164.7909 C.ar    1  UNL1       -0.0003
     27 C         139.3809  145.0715  163.5443 C.ar    1  UNL1       -0.0000
     28 C         140.7343  144.4473  163.3744 C.ar    1  UNL1       -0.0003
     29 C         141.2941  143.5656  164.4510 C.ar    1  UNL1       -0.0042
@<TRIPOS>BOND
     1     1     2    1
     2     2     4    1
     3     4     5   ar
     4     5     6   ar
     5     6     7   ar
     6     7     8   ar
     7     8     9   ar
     8     2    10    1
     9    10    11   ar
    10    11    12   ar
    11    12    13   ar
    12    13    14   ar
    13    14    15   ar
    14     2    16    1
    15    16    23    1
    16    23    24    1
    17    24    25   ar
    18    25    26   ar
    19    26    27   ar
    20    27    28   ar
    21    28    29   ar
    22    16    17    1
    23    17    18    1
    24    18    19    1
    25    19    20    1
    26    20    21    1
    27    21    22    1
    28     9     4   ar
    29    15    10   ar
    30    29    24   ar
    31    22    17    1
    32     1     3    1
@<TRIPOS>MOLECULE
*****
 29 32 0 0 0
SMALL
GASTEIGER

@<TRIPOS>ATOM
      1 O         142.8790  140.8534  168.4187 O.3     1  UNL1       -0.3771
      2 C         141.7866  141.2588  167.4741 C.3     1  UNL1        0.1421
      3 H         142.5661  140.9430  169.3324 H       1  UNL1        0.2112
      4 C         142.5931  140.7422  166.3197 C.ar    1  UNL1        0.0261
      5 C         142.7538  139.2645  166.1187 C.ar    1  UNL1        0.0015
      6 C         143.5604  138.7480  164.9642 C.ar    1  UNL1        0.0204
      7 C         144.2062  139.7092  164.0108 C.ar    1  UNL1        0.0989
      8 N         144.0455  141.1869  164.2119 N.ar    1  UNL1       -0.2426
      9 C         143.2390  141.7035  165.3663 C.ar    1  UNL1        0.0972
     10 C         140.9801  141.7753  168.6286 C.ar    1  UNL1        0.0261
     11 C         141.1792  143.1807  169.1134 C.ar    1  UNL1        0.0015
     12 C         140.3727  143.6972  170.2678 C.ar    1  UNL1        0.0204
     13 C         139.3670  142.8083  170.9374 C.ar    1  UNL1        0.0989
     14 N         139.1679  141.4028  170.4527 N.ar    1  UNL1       -0.2426
     15 C         139.9744  140.8863  169.2982 C.ar    1  UNL1        0.0972
     16 C         140.6942  141.6641  166.5295 C.3     1  UNL1        0.0947
     17 N         140.0129  140.6302  165.6827 N.3     1  UNL1       -0.2668
     18 C         139.1370  139.5946  166.3233 C.3     1  UNL1        0.1047
     19 C         138.4557  138.5608  165.4765 C.3     1  UNL1        0.1595
     20 O         138.6503  138.5626  163.9891 O.3     1  UNL1       -0.3508
     21 C         139.5262  139.5982  163.3486 C.3     1  UNL1        0.1595
     22 C         140.2075  140.6320  164.1954 C.3     1  UNL1        0.1047
     23 C         140.2831  143.1034  166.4316 C.3     1  UNL1        0.0454
     24 C         139.8414  143.6693  165.1145 C.ar    1  UNL1       -0.0207
     25 C         138.3915  143.6345  164.7316 C.ar    1  UNL1       -0.0042
     26 C         137.9498  144.2004  163.4145 C.ar    1  UNL1       -0.0003
     27 C         138.9581  144.8011  162.4803 C.ar    1  UNL1       -0.0000
     28 C         140.4080  144.8359  162.8633 C.ar    1  UNL1       -0.0003
     29 C         140.8496  144.2700  164.1804 C.ar    1  UNL1       -0.0042
@<TRIPOS>BOND
     1     1     2    1
     2     2     4    1
     3     4     5   ar
     4     5     6   ar
     5     6     7   ar
     6     7     8   ar
     7     8     9   ar
     8     2    10    1
     9    10    11   ar
    10    11    12   ar
    11    12    13   ar
    12    13    14   ar
    13    14    15   ar
    14     2    16    1
    15    16    23    1
    16    23    24    1
    17    24    25   ar
    18    25    26   ar
    19    26    27   ar
    20    27    28   ar
    21    28    29   ar
    22    16    17    1
    23    17    18    1
    24    18    19    1
    25    19    20    1
    26    20    21    1
    27    21    22    1
    28     9     4   ar
    29    15    10   ar
    30    29    24   ar
    31    22    17    1
    32     1     3    1
@<TRIPOS>MOLECULE
*****
 29 32 0 0 0
SMALL
GASTEIGER

@<TRIPOS>ATOM
      1 O         139.8078  139.7673  167.6469 O.3     1  UNL1       -0.3771
      2 C         140.6360  140.5424  166.6654 C.3     1  UNL1        0.1421
      3 H         139.8763  140.1779  168.5230 H       1  UNL1        0.2112
      4 C         140.0439  139.7486  165.5389 C.ar    1  UNL1        0.0261
      5 C         138.9494  140.3385  164.6998 C.ar    1  UNL1        0.0015
      6 C         138.3573  139.5446  163.5732 C.ar    1  UNL1        0.0204
      7 C         138.8597  138.1608  163.2857 C.ar    1  UNL1        0.0989
      8 N         139.9542  137.5709  164.1248 N.ar    1  UNL1       -0.2426
      9 C         140.5463  138.3647  165.2513 C.ar    1  UNL1        0.0972
     10 C         141.2281  141.3363  167.7921 C.ar    1  UNL1        0.0261
     11 C         140.4324  142.4325  168.4364 C.ar    1  UNL1        0.0015
     12 C         141.0246  143.2263  169.5630 C.ar    1  UNL1        0.0204
     13 C         142.4124  142.9238  170.0452 C.ar    1  UNL1        0.0989
     14 N         143.2080  141.8276  169.4009 N.ar    1  UNL1       -0.2426
     15 C         142.6159  141.0338  168.2743 C.ar    1  UNL1        0.0972
     16 C         141.4641  141.3175  165.6840 C.3     1  UNL1        0.0947
     17 N         142.4761  140.6096  164.8325 N.3     1  UNL1       -0.2668
     18 C         142.3651  140.6601  163.3374 C.3     1  UNL1        0.1047
     19 C         143.3771  139.9522  162.4860 C.3     1  UNL1        0.1595
     20 O         144.4999  139.1939  163.1296 O.3     1  UNL1       -0.3508
     21 C         144.6108  139.1434  164.6247 C.3     1  UNL1        0.1595
     22 C         143.5989  139.8513  165.4761 C.3     1  UNL1        0.1047
     23 C         141.2804  142.8005  165.5539 C.3     1  UNL1        0.0454
     24 C         140.1359  143.3471  164.7530 C.ar    1  UNL1       -0.0207
     25 C         138.9128  143.8653  165.4498 C.ar    1  UNL1       -0.0042
     26 C         137.7683  144.4119  164.6489 C.ar    1  UNL1       -0.0003
     27 C         137.8469  144.4402  163.1512 C.ar    1  UNL1       -0.0000
     28 C         139.0701  143.9220  162.4544 C.ar    1  UNL1       -0.0003
     29 C         140.2145  143.3754  163.2553 C.ar    1  UNL1       -0.0042
@<TRIPOS>BOND
     1     1     2    1
     2     2     4    1
     3     4     5   ar
     4     5     6   ar
     5     6     7   ar
     6     7     8   ar
     7     8     9   ar
     8     2    10    1
     9    10    11   ar
    10    11    12   ar
    11    12    13   ar
    12    13    14   ar
    13    14    15   ar
    14     2    16    1
    15    16    23    1
    16    23    24    1
    17    24    25   ar
    18    25    26   ar
    19    26    27   ar
    20    27    28   ar
    21    28    29   ar
    22    16    17    1
    23    17    18    1
    24    18    19    1
    25    19    20    1
    26    20    21    1
    27    21    22    1
    28     9     4   ar
    29    15    10   ar
    30    29    24   ar
    31    22    17    1
    32     1     3    1
@<TRIPOS>MOLECULE
*****
 29 32 0 0 0
SMALL
GASTEIGER

@<TRIPOS>ATOM
      1 O         137.2842  141.3031  164.1475 O.3     1  UNL1       -0.3771
      2 C         138.7613  141.1718  164.3730 C.3     1  UNL1        0.1421
      3 H         137.1092  142.0826  163.5974 H       1  UNL1        0.2112
      4 C         138.5477  139.8186  164.9839 C.ar    1  UNL1        0.0261
      5 C         137.9146  139.6987  166.3384 C.ar    1  UNL1        0.0015
      6 C         137.7011  138.3454  166.9493 C.ar    1  UNL1        0.0204
      7 C         138.1206  137.1121  166.2056 C.ar    1  UNL1        0.0989
      8 N         138.7537  137.2321  164.8511 N.ar    1  UNL1       -0.2426
      9 C         138.9673  138.5853  164.2402 C.ar    1  UNL1        0.0972
     10 C         138.9748  142.5251  163.7621 C.ar    1  UNL1        0.0261
     11 C         139.3644  143.6860  164.6284 C.ar    1  UNL1        0.0015
     12 C         139.5779  145.0392  164.0175 C.ar    1  UNL1        0.0204
     13 C         139.4018  145.2315  162.5403 C.ar    1  UNL1        0.0989
     14 N         139.0123  144.0705  161.6740 N.ar    1  UNL1       -0.2426
     15 C         138.7988  142.7174  162.2850 C.ar    1  UNL1        0.0972
     16 C         140.2384  141.0405  164.5986 C.3     1  UNL1        0.0947
     17 N         140.7820  140.9873  165.9957 N.3     1  UNL1       -0.2668
     18 C         140.5582  142.1377  166.9318 C.3     1  UNL1        0.1047
     19 C         141.1018  142.0844  168.3289 C.3     1  UNL1        0.1595
     20 O         141.8692  140.8808  168.7897 O.3     1  UNL1       -0.3508
     21 C         142.0930  139.7304  167.8534 C.3     1  UNL1        0.1595
     22 C         141.5494  139.7837  166.4565 C.3     1  UNL1        0.1047
     23 C         141.1719  140.9624  163.4271 C.3     1  UNL1        0.0454
     24 C         142.6192  141.3189  163.5963 C.ar    1  UNL1       -0.0207
     25 C         143.0126  142.7345  163.8981 C.ar    1  UNL1       -0.0042
     26 C         144.4598  143.0909  164.0673 C.ar    1  UNL1       -0.0003
     27 C         145.5136  142.0316  163.9348 C.ar    1  UNL1       -0.0000
     28 C         145.1201  140.6159  163.6330 C.ar    1  UNL1       -0.0003
     29 C         143.6729  140.2596  163.4638 C.ar    1  UNL1       -0.0042
@<TRIPOS>BOND
     1     1     2    1
     2     2     4    1
     3     4     5   ar
     4     5     6   ar
     5     6     7   ar
     6     7     8   ar
     7     8     9   ar
     8     2    10    1
     9    10    11   ar
    10    11    12   ar
    11    12    13   ar
    12    13    14   ar
    13    14    15   ar
    14     2    16    1
    15    16    23    1
    16    23    24    1
    17    24    25   ar
    18    25    26   ar
    19    26    27   ar
    20    27    28   ar
    21    28    29   ar
    22    16    17    1
    23    17    18    1
    24    18    19    1
    25    19    20    1
    26    20    21    1
    27    21    22    1
    28     9     4   ar
    29    15    10   ar
    30    29    24   ar
    31    22    17    1
    32     1     3    1
