@<TRIPOS>MOLECULE
*****
 35 39 0 0 0
SMALL
GASTEIGER

@<TRIPOS>ATOM
      1 C         142.4523  137.8721  158.6076 C.ar    1  UNL1        0.1473
      2 C         142.9142  137.6193  160.0121 C.ar    1  UNL1        0.0390
      3 C         142.0262  137.9719  161.1685 C.ar    1  UNL1        0.0208
      4 C         140.6764  138.5771  160.9203 C.ar    1  UNL1        0.0683
      5 C         140.2146  138.8299  159.5158 C.ar    1  UNL1        0.0208
      6 C         138.8431  139.4339  159.5805 C.ar    1  UNL1        0.0207
      7 C         138.4573  139.5545  161.0250 C.ar    1  UNL1        0.0842
      8 N         139.5904  139.0250  161.8530 N.ar    1  UNL1       -0.2609
      9 C         139.6304  138.9555  163.3509 C.2     1  UNL1        0.3249
     10 O         140.8382  138.3976  164.0438 O.2     1  UNL1       -0.2488
     11 N         138.4627  139.4439  164.1559 N.am    1  UNL1       -0.2484
     12 C         141.1025  138.4773  158.3594 C.ar    1  UNL1        0.0390
     13 H         137.6700  139.8100  163.7011 H       1  UNL1        0.1581
     14 C         138.5027  139.3744  165.6537 C.ar    1  UNL1        0.1773
     15 C         139.4227  140.1515  166.5481 C.ar    1  UNL1        0.0734
     16 C         139.1184  139.7730  167.9673 C.ar    1  UNL1        0.1549
     17 O         138.0104  138.7620  167.9500 O.2     1  UNL1       -0.3565
     18 N         137.6299  138.5157  166.5202 N.ar    1  UNL1       -0.0620
     19 C         139.8020  140.3110  169.1893 C.3     1  UNL1        0.0539
     20 C         138.5167  140.2048  169.9551 C.3     1  UNL1        0.0076
     21 C         141.0874  140.4172  168.4233 C.3     1  UNL1        0.0076
     22 C         140.4857  140.8490  170.4111 C.3     1  UNL1        0.0076
     23 O         143.3403  137.5195  157.4512 O.3     1  UNL1       -0.4363
     24 C         144.9421  132.3739  157.9067 C.3     1  UNL1        0.0175
     25 C         144.1169  133.1213  156.9014 C.3     1  UNL1        0.0589
     26 C         143.8581  134.5873  157.0846 C.3     1  UNL1        0.0481
     27 C         143.0329  135.3346  156.0793 C.ar    1  UNL1        0.0476
     28 C         142.4667  134.6159  154.8907 C.ar    1  UNL1        0.0772
     29 N         141.6415  135.3632  153.8854 N.ar    1  UNL1       -0.2271
     30 C         141.3826  136.8292  154.0687 C.ar    1  UNL1        0.2012
     31 N         141.9489  137.5481  155.2573 N.ar    1  UNL1       -0.1893
     32 C         142.7741  136.8007  156.2626 C.ar    1  UNL1        0.2282
     33 C         142.7256  133.1498  154.7075 C.3     1  UNL1        0.1150
     34 N         143.5507  132.4025  155.7128 N.3     1  UNL1       -0.2933
     35 H         144.3408  132.0028  155.2065 H       1  UNL1        0.1236
@<TRIPOS>BOND
     1    25    24    1
     2    25    26    1
     3    26    27    1
     4    27    28   ar
     5    28    29   ar
     6    29    30   ar
     7    30    31   ar
     8    31    32   ar
     9    32    23    1
    10    23     1    1
    11     1     2   ar
    12     2     3   ar
    13     3     4   ar
    14     4     5   ar
    15     5     6   ar
    16     6     7   ar
    17     7     8   ar
    18     8     9   am
    19     9    10    2
    20     9    11   am
    21    11    14    1
    22    14    15   ar
    23    15    16   ar
    24    16    19    1
    25    19    20    1
    26    19    21    1
    27    19    22    1
    28    16    17   ar
    29    17    18   ar
    30     5    12   ar
    31    28    33    1
    32    33    34    1
    33    34    25    1
    34    32    27   ar
    35    12     1   ar
    36     8     4   ar
    37    18    14   ar
    38    11    13    1
    39    34    35    1
@<TRIPOS>MOLECULE
*****
 35 39 0 0 0
SMALL
GASTEIGER

@<TRIPOS>ATOM
      1 C         142.4009  137.7081  158.5926 C.ar    1  UNL1        0.1473
      2 C         142.8388  137.4107  159.9961 C.ar    1  UNL1        0.0390
      3 C         141.9794  137.8249  161.1536 C.ar    1  UNL1        0.0208
      4 C         140.6820  138.5363  160.9076 C.ar    1  UNL1        0.0683
      5 C         140.2441  138.8337  159.5041 C.ar    1  UNL1        0.0208
      6 C         138.9244  139.5436  159.5709 C.ar    1  UNL1        0.0207
      7 C         138.5467  139.6851  161.0157 C.ar    1  UNL1        0.0842
      8 N         139.6330  139.0626  161.8418 N.ar    1  UNL1       -0.2609
      9 C         139.6647  138.9806  163.3392 C.2     1  UNL1        0.3249
     10 O         140.8235  138.3248  164.0300 O.2     1  UNL1       -0.2488
     11 N         138.5377  139.5545  164.1458 N.am    1  UNL1       -0.2484
     12 C         141.1035  138.4195  158.3466 C.ar    1  UNL1        0.0390
     13 H         137.7772  139.9849  163.6924 H       1  UNL1        0.1581
     14 C         138.5694  139.4725  165.6432 C.ar    1  UNL1        0.1773
     15 C         139.5180  140.2037  166.5463 C.ar    1  UNL1        0.0734
     16 C         139.1930  139.8281  167.9617 C.ar    1  UNL1        0.1549
     17 O         138.0436  138.8648  167.9333 O.2     1  UNL1       -0.3565
     18 N         137.6582  138.6450  166.5004 N.ar    1  UNL1       -0.0620
     19 C         139.8943  140.3280  169.1898 C.3     1  UNL1        0.0539
     20 C         138.6156  140.2156  169.9658 C.3     1  UNL1        0.0076
     21 C         141.1731  140.4405  168.4137 C.3     1  UNL1        0.0076
     22 C         140.5957  140.8279  170.4178 C.3     1  UNL1        0.0076
     23 O         143.2604  137.2939  157.4351 O.3     1  UNL1       -0.4363
     24 C         141.7237  138.1000  152.3127 C.3     1  UNL1        0.0175
     25 C         141.9860  136.8763  153.1396 C.3     1  UNL1        0.0589
     26 C         142.4108  137.0155  154.5714 C.3     1  UNL1        0.0481
     27 C         142.6730  135.7917  155.3983 C.ar    1  UNL1        0.0476
     28 C         142.5105  134.4288  154.7933 C.ar    1  UNL1        0.0772
     29 N         142.7728  133.2051  155.6202 N.ar    1  UNL1       -0.2271
     30 C         143.1976  133.3443  157.0520 C.ar    1  UNL1        0.2012
     31 N         143.3601  134.7072  157.6570 N.ar    1  UNL1       -0.1893
     32 C         143.0978  135.9310  156.8301 C.ar    1  UNL1        0.2282
     33 C         142.0857  134.2896  153.3615 C.3     1  UNL1        0.1150
     34 N         141.8234  135.5134  152.5346 N.3     1  UNL1       -0.2933
     35 H         140.8586  135.4483  152.2103 H       1  UNL1        0.1236
@<TRIPOS>BOND
     1    25    24    1
     2    25    26    1
     3    26    27    1
     4    27    28   ar
     5    28    29   ar
     6    29    30   ar
     7    30    31   ar
     8    31    32   ar
     9    32    23    1
    10    23     1    1
    11     1     2   ar
    12     2     3   ar
    13     3     4   ar
    14     4     5   ar
    15     5     6   ar
    16     6     7   ar
    17     7     8   ar
    18     8     9   am
    19     9    10    2
    20     9    11   am
    21    11    14    1
    22    14    15   ar
    23    15    16   ar
    24    16    19    1
    25    19    20    1
    26    19    21    1
    27    19    22    1
    28    16    17   ar
    29    17    18   ar
    30     5    12   ar
    31    28    33    1
    32    33    34    1
    33    34    25    1
    34    32    27   ar
    35    12     1   ar
    36     8     4   ar
    37    18    14   ar
    38    11    13    1
    39    34    35    1
@<TRIPOS>MOLECULE
*****
 35 39 0 0 0
SMALL
GASTEIGER

@<TRIPOS>ATOM
      1 C         138.2369  141.5717  159.3964 C.ar    1  UNL1        0.1473
      2 C         138.2786  142.4436  160.6163 C.ar    1  UNL1        0.0390
      3 C         138.4098  141.8247  161.9763 C.ar    1  UNL1        0.0208
      4 C         138.4994  140.3340  162.1164 C.ar    1  UNL1        0.0683
      5 C         138.4578  139.4621  160.8966 C.ar    1  UNL1        0.0208
      6 C         138.5662  138.0343  161.3434 C.ar    1  UNL1        0.0207
      7 C         138.6749  138.0237  162.8394 C.ar    1  UNL1        0.0842
      8 N         138.6336  139.4450  163.3172 N.ar    1  UNL1       -0.2609
      9 C         138.7126  139.8978  164.7450 C.2     1  UNL1        0.3249
     10 O         138.6582  141.3607  165.0720 O.2     1  UNL1       -0.2488
     11 N         138.8460  138.8877  165.8459 N.am    1  UNL1       -0.2484
     12 C         138.3266  140.0810  159.5365 C.ar    1  UNL1        0.0390
     13 H         138.8817  137.9275  165.6313 H       1  UNL1        0.1581
     14 C         138.9249  139.3405  167.2738 C.ar    1  UNL1        0.1773
     15 C         140.0682  140.0811  167.9019 C.ar    1  UNL1        0.0734
     16 C         139.7244  140.3305  169.3404 C.ar    1  UNL1        0.1549
     17 O         138.3687  139.7441  169.6014 O.2     1  UNL1       -0.3565
     18 N         137.8745  139.1323  168.3241 N.ar    1  UNL1       -0.0620
     19 C         140.5852  141.0415  170.3422 C.3     1  UNL1        0.0539
     20 C         139.6299  142.1980  170.3422 C.3     1  UNL1        0.0076
     21 C         141.5405  139.8850  170.3421 C.3     1  UNL1        0.0076
     22 C         141.4460  141.7525  171.3439 C.3     1  UNL1        0.0076
     23 O         138.1057  142.1907  158.0363 O.3     1  UNL1       -0.4363
     24 C         133.3057  140.6322  156.0917 C.3     1  UNL1        0.0175
     25 C         134.7247  140.4115  155.6586 C.3     1  UNL1        0.0589
     26 C         135.8517  141.0045  156.4511 C.3     1  UNL1        0.0481
     27 C         137.2707  140.7838  156.0180 C.ar    1  UNL1        0.0476
     28 C         137.5628  139.9700  154.7923 C.ar    1  UNL1        0.0772
     29 N         138.9818  139.7492  154.3591 N.ar    1  UNL1       -0.2271
     30 C         140.1088  140.3423  155.1517 C.ar    1  UNL1        0.2012
     31 N         139.8168  141.1561  156.3774 N.ar    1  UNL1       -0.1893
     32 C         138.3978  141.3769  156.8106 C.ar    1  UNL1        0.2282
     33 C         136.4358  139.3769  153.9997 C.3     1  UNL1        0.1150
     34 N         135.0168  139.5977  154.4329 N.3     1  UNL1       -0.2933
     35 H         134.6094  138.6755  154.5878 H       1  UNL1        0.1236
@<TRIPOS>BOND
     1    25    24    1
     2    25    26    1
     3    26    27    1
     4    27    28   ar
     5    28    29   ar
     6    29    30   ar
     7    30    31   ar
     8    31    32   ar
     9    32    23    1
    10    23     1    1
    11     1     2   ar
    12     2     3   ar
    13     3     4   ar
    14     4     5   ar
    15     5     6   ar
    16     6     7   ar
    17     7     8   ar
    18     8     9   am
    19     9    10    2
    20     9    11   am
    21    11    14    1
    22    14    15   ar
    23    15    16   ar
    24    16    19    1
    25    19    20    1
    26    19    21    1
    27    19    22    1
    28    16    17   ar
    29    17    18   ar
    30     5    12   ar
    31    28    33    1
    32    33    34    1
    33    34    25    1
    34    32    27   ar
    35    12     1   ar
    36     8     4   ar
    37    18    14   ar
    38    11    13    1
    39    34    35    1
@<TRIPOS>MOLECULE
*****
 35 39 0 0 0
SMALL
GASTEIGER

@<TRIPOS>ATOM
      1 C         139.4204  140.5394  165.1416 C.ar    1  UNL1        0.1473
      2 C         140.3436  140.3493  163.9747 C.ar    1  UNL1        0.0390
      3 C         140.4089  141.3866  162.8933 C.ar    1  UNL1        0.0208
      4 C         139.5511  142.6141  162.9787 C.ar    1  UNL1        0.0683
      5 C         138.6280  142.8043  164.1456 C.ar    1  UNL1        0.0208
      6 C         137.9076  144.1068  163.9593 C.ar    1  UNL1        0.0207
      7 C         138.3855  144.7215  162.6772 C.ar    1  UNL1        0.0842
      8 N         139.4013  143.7991  162.0712 N.ar    1  UNL1       -0.2609
      9 C         140.1379  144.0223  160.7837 C.2     1  UNL1        0.3249
     10 O         141.1300  143.0059  160.3014 O.2     1  UNL1       -0.2488
     11 N         139.8823  145.2619  159.9786 N.am    1  UNL1       -0.2484
     12 C         138.5626  141.7670  165.2271 C.ar    1  UNL1        0.0390
     13 H         139.2311  145.9289  160.2952 H       1  UNL1        0.1581
     14 C         140.6189  145.4851  158.6911 C.ar    1  UNL1        0.1773
     15 C         140.0252  145.4298  157.3147 C.ar    1  UNL1        0.0734
     16 C         141.1178  145.7133  156.3269 C.ar    1  UNL1        0.1549
     17 O         142.3868  145.9438  157.0928 O.2     1  UNL1       -0.3565
     18 N         142.0784  145.8028  158.5540 N.ar    1  UNL1       -0.0620
     19 C         140.9679  145.7584  154.8351 C.3     1  UNL1        0.0539
     20 C         141.6856  144.4460  154.7233 C.3     1  UNL1        0.0076
     21 C         140.2501  147.0708  154.9469 C.3     1  UNL1        0.0076
     22 C         140.8179  145.8035  153.3434 C.3     1  UNL1        0.0076
     23 O         139.3551  139.5020  166.2231 O.3     1  UNL1       -0.4363
     24 C         143.7031  142.6718  166.7683 C.3     1  UNL1        0.0175
     25 C         142.6415  142.1910  167.7127 C.3     1  UNL1        0.0589
     26 C         141.5460  141.2947  167.2162 C.3     1  UNL1        0.0481
     27 C         140.4844  140.8139  168.1605 C.ar    1  UNL1        0.0476
     28 C         140.5183  141.2293  169.6014 C.ar    1  UNL1        0.0772
     29 N         139.4567  140.7485  170.5458 N.ar    1  UNL1       -0.2271
     30 C         138.3613  139.8522  170.0493 C.ar    1  UNL1        0.2012
     31 N         138.3274  139.4367  168.6084 N.ar    1  UNL1       -0.1893
     32 C         139.3890  139.9175  167.6640 C.ar    1  UNL1        0.2282
     33 C         141.6138  142.1257  170.0979 C.3     1  UNL1        0.1150
     34 N         142.6754  142.6065  169.1535 N.3     1  UNL1       -0.2933
     35 H         143.5693  142.2909  169.5300 H       1  UNL1        0.1236
@<TRIPOS>BOND
     1    25    24    1
     2    25    26    1
     3    26    27    1
     4    27    28   ar
     5    28    29   ar
     6    29    30   ar
     7    30    31   ar
     8    31    32   ar
     9    32    23    1
    10    23     1    1
    11     1     2   ar
    12     2     3   ar
    13     3     4   ar
    14     4     5   ar
    15     5     6   ar
    16     6     7   ar
    17     7     8   ar
    18     8     9   am
    19     9    10    2
    20     9    11   am
    21    11    14    1
    22    14    15   ar
    23    15    16   ar
    24    16    19    1
    25    19    20    1
    26    19    21    1
    27    19    22    1
    28    16    17   ar
    29    17    18   ar
    30     5    12   ar
    31    28    33    1
    32    33    34    1
    33    34    25    1
    34    32    27   ar
    35    12     1   ar
    36     8     4   ar
    37    18    14   ar
    38    11    13    1
    39    34    35    1
@<TRIPOS>MOLECULE
*****
 35 39 0 0 0
SMALL
GASTEIGER

@<TRIPOS>ATOM
      1 C         143.7971  142.2170  162.5385 C.ar    1  UNL1        0.1473
      2 C         143.1535  140.8624  162.5677 C.ar    1  UNL1        0.0390
      3 C         143.0613  140.0487  161.3110 C.ar    1  UNL1        0.0208
      4 C         143.6127  140.5896  160.0252 C.ar    1  UNL1        0.0683
      5 C         144.2563  141.9442  159.9960 C.ar    1  UNL1        0.0208
      6 C         144.7073  142.2129  158.5909 C.ar    1  UNL1        0.0207
      7 C         144.3424  141.0244  157.7516 C.ar    1  UNL1        0.0842
      8 N         143.6659  140.0211  158.6380 N.ar    1  UNL1       -0.2609
      9 C         143.1358  138.6842  158.2122 C.2     1  UNL1        0.3249
     10 O         142.4801  137.7829  159.2161 O.2     1  UNL1       -0.2488
     11 N         143.2612  138.2484  156.7823 N.am    1  UNL1       -0.2484
     12 C         144.3485  142.7579  161.2527 C.ar    1  UNL1        0.0390
     13 H         143.6916  138.8399  156.1234 H       1  UNL1        0.1581
     14 C         142.7311  136.9114  156.3564 C.ar    1  UNL1        0.1773
     15 C         143.2429  135.5756  156.8076 C.ar    1  UNL1        0.0734
     16 C         142.4242  134.5141  156.1346 C.ar    1  UNL1        0.1549
     17 O         141.4063  135.1939  155.2676 O.2     1  UNL1       -0.3565
     18 N         141.5960  136.6755  155.4046 N.ar    1  UNL1       -0.0620
     19 C         142.5935  133.0328  156.2998 C.3     1  UNL1        0.0539
     20 C         141.4143  132.7980  155.4029 C.3     1  UNL1        0.0076
     21 C         143.7728  133.2677  157.1966 C.3     1  UNL1        0.0076
     22 C         142.7629  131.5517  156.4649 C.3     1  UNL1        0.0076
     23 O         143.8893  143.0308  163.7953 O.3     1  UNL1       -0.4363
     24 C         139.8610  146.0097  161.7586 C.3     1  UNL1        0.0175
     25 C         140.0373  145.2260  163.0254 C.3     1  UNL1        0.0589
     26 C         141.3213  144.4942  163.2820 C.3     1  UNL1        0.0481
     27 C         141.4976  143.7105  164.5488 C.ar    1  UNL1        0.0476
     28 C         140.3900  143.6585  165.5589 C.ar    1  UNL1        0.0772
     29 N         140.5663  142.8748  166.8256 N.ar    1  UNL1       -0.2271
     30 C         141.8503  142.1431  167.0823 C.ar    1  UNL1        0.2012
     31 N         142.9580  142.1950  166.0722 N.ar    1  UNL1       -0.1893
     32 C         142.7817  142.9788  164.8054 C.ar    1  UNL1        0.2282
     33 C         139.1060  144.3902  165.3022 C.3     1  UNL1        0.1150
     34 N         138.9297  145.1740  164.0355 N.3     1  UNL1       -0.2933
     35 H         138.7358  146.1371  164.3097 H       1  UNL1        0.1236
@<TRIPOS>BOND
     1    25    24    1
     2    25    26    1
     3    26    27    1
     4    27    28   ar
     5    28    29   ar
     6    29    30   ar
     7    30    31   ar
     8    31    32   ar
     9    32    23    1
    10    23     1    1
    11     1     2   ar
    12     2     3   ar
    13     3     4   ar
    14     4     5   ar
    15     5     6   ar
    16     6     7   ar
    17     7     8   ar
    18     8     9   am
    19     9    10    2
    20     9    11   am
    21    11    14    1
    22    14    15   ar
    23    15    16   ar
    24    16    19    1
    25    19    20    1
    26    19    21    1
    27    19    22    1
    28    16    17   ar
    29    17    18   ar
    30     5    12   ar
    31    28    33    1
    32    33    34    1
    33    34    25    1
    34    32    27   ar
    35    12     1   ar
    36     8     4   ar
    37    18    14   ar
    38    11    13    1
    39    34    35    1
@<TRIPOS>MOLECULE
*****
 35 39 0 0 0
SMALL
GASTEIGER

@<TRIPOS>ATOM
      1 C         142.8643  140.8805  165.8062 C.ar    1  UNL1        0.1473
      2 C         142.0211  140.5147  164.6207 C.ar    1  UNL1        0.0390
      3 C         141.8773  141.4751  163.4776 C.ar    1  UNL1        0.0208
      4 C         142.5766  142.8014  163.5199 C.ar    1  UNL1        0.0683
      5 C         143.4198  143.1673  164.7053 C.ar    1  UNL1        0.0208
      6 C         143.9853  144.5360  164.4671 C.ar    1  UNL1        0.0207
      7 C         143.4917  145.0161  163.1345 C.ar    1  UNL1        0.0842
      8 N         142.6211  143.9440  162.5491 N.ar    1  UNL1       -0.2609
      9 C         141.9184  144.0040  161.2252 C.2     1  UNL1        0.3249
     10 O         141.0772  142.8487  160.7696 O.2     1  UNL1       -0.2488
     11 N         142.0568  145.2195  160.3570 N.am    1  UNL1       -0.2484
     12 C         143.5636  142.2069  165.8485 C.ar    1  UNL1        0.0390
     13 H         142.6089  145.9778  160.6560 H       1  UNL1        0.1581
     14 C         141.3540  145.2795  159.0332 C.ar    1  UNL1        0.1773
     15 C         141.9857  145.0673  157.6893 C.ar    1  UNL1        0.0734
     16 C         140.9183  145.2189  156.6463 C.ar    1  UNL1        0.1549
     17 O         139.6270  145.5247  157.3457 O.2     1  UNL1       -0.3565
     18 N         139.8963  145.5622  158.8208 N.ar    1  UNL1       -0.0620
     19 C         141.1087  145.0876  155.1643 C.3     1  UNL1        0.0539
     20 C         142.5965  145.1205  155.3525 C.3     1  UNL1        0.0076
     21 C         139.6209  145.0548  154.9761 C.3     1  UNL1        0.0076
     22 C         141.2991  144.9564  153.6823 C.3     1  UNL1        0.0076
     23 O         143.0081  139.9200  166.9494 O.3     1  UNL1       -0.4363
     24 C         137.7329  138.7513  166.7120 C.3     1  UNL1        0.0175
     25 C         138.6288  139.3033  167.7810 C.3     1  UNL1        0.0589
     26 C         140.0885  139.5089  167.5038 C.3     1  UNL1        0.0481
     27 C         140.9844  140.0609  168.5727 C.ar    1  UNL1        0.0476
     28 C         140.4206  140.4073  169.9188 C.ar    1  UNL1        0.0772
     29 N         141.3166  140.9593  170.9877 N.ar    1  UNL1       -0.2271
     30 C         142.7763  141.1649  170.7106 C.ar    1  UNL1        0.2012
     31 N         143.3402  140.8185  169.3644 N.ar    1  UNL1       -0.1893
     32 C         142.4443  140.2665  168.2955 C.ar    1  UNL1        0.2282
     33 C         138.9609  140.2018  170.1960 C.3     1  UNL1        0.1150
     34 N         138.0650  139.6498  169.1271 N.3     1  UNL1       -0.2933
     35 H         137.3326  140.3421  168.9702 H       1  UNL1        0.1236
@<TRIPOS>BOND
     1    25    24    1
     2    25    26    1
     3    26    27    1
     4    27    28   ar
     5    28    29   ar
     6    29    30   ar
     7    30    31   ar
     8    31    32   ar
     9    32    23    1
    10    23     1    1
    11     1     2   ar
    12     2     3   ar
    13     3     4   ar
    14     4     5   ar
    15     5     6   ar
    16     6     7   ar
    17     7     8   ar
    18     8     9   am
    19     9    10    2
    20     9    11   am
    21    11    14    1
    22    14    15   ar
    23    15    16   ar
    24    16    19    1
    25    19    20    1
    26    19    21    1
    27    19    22    1
    28    16    17   ar
    29    17    18   ar
    30     5    12   ar
    31    28    33    1
    32    33    34    1
    33    34    25    1
    34    32    27   ar
    35    12     1   ar
    36     8     4   ar
    37    18    14   ar
    38    11    13    1
    39    34    35    1
@<TRIPOS>MOLECULE
*****
 35 39 0 0 0
SMALL
GASTEIGER

@<TRIPOS>ATOM
      1 C         141.4723  141.3264  165.2569 C.ar    1  UNL1        0.1473
      2 C         141.8769  140.9147  163.8724 C.ar    1  UNL1        0.0390
      3 C         141.5182  141.7769  162.6986 C.ar    1  UNL1        0.0208
      4 C         140.7548  143.0508  162.9093 C.ar    1  UNL1        0.0683
      5 C         140.3502  143.4625  164.2938 C.ar    1  UNL1        0.0208
      6 C         139.6090  144.7626  164.1927 C.ar    1  UNL1        0.0207
      7 C         139.5555  145.1545  162.7458 C.ar    1  UNL1        0.0842
      8 N         140.2636  144.0965  161.9526 N.ar    1  UNL1       -0.2609
      9 C         140.4482  144.0861  160.4640 C.2     1  UNL1        0.3249
     10 O         141.1824  142.9549  159.8073 O.2     1  UNL1       -0.2488
     11 N         139.8986  145.2069  159.6322 N.am    1  UNL1       -0.2484
     12 C         140.7090  142.6003  165.4676 C.ar    1  UNL1        0.0390
     13 H         139.4167  145.9493  160.0633 H       1  UNL1        0.1581
     14 C         140.0832  145.1964  158.1437 C.ar    1  UNL1        0.1773
     15 C         140.1547  146.4032  157.2556 C.ar    1  UNL1        0.0734
     16 C         140.3444  145.9300  155.8449 C.ar    1  UNL1        0.1549
     17 O         140.3901  144.4308  155.8611 O.2     1  UNL1       -0.3565
     18 N         140.2287  143.9774  157.2818 N.ar    1  UNL1       -0.0620
     19 C         140.4668  146.8027  154.6311 C.3     1  UNL1        0.0539
     20 C         139.4809  147.7654  155.2238 C.3     1  UNL1        0.0076
     21 C         141.4528  145.8400  154.0385 C.3     1  UNL1        0.0076
     22 C         140.5893  147.6754  153.4173 C.3     1  UNL1        0.0076
     23 O         141.8312  140.4641  166.4307 O.3     1  UNL1       -0.4363
     24 C         144.8502  143.0828  170.0746 C.3     1  UNL1        0.0175
     25 C         143.4798  142.4737  170.1041 C.3     1  UNL1        0.0589
     26 C         142.9303  141.8038  168.8797 C.3     1  UNL1        0.0481
     27 C         141.5598  141.1947  168.9092 C.ar    1  UNL1        0.0476
     28 C         140.7389  141.2554  170.1631 C.ar    1  UNL1        0.0772
     29 N         139.3685  140.6463  170.1926 N.ar    1  UNL1       -0.2271
     30 C         138.8189  139.9765  168.9682 C.ar    1  UNL1        0.2012
     31 N         139.6398  139.9157  167.7142 N.ar    1  UNL1       -0.1893
     32 C         141.0103  140.5248  167.6847 C.ar    1  UNL1        0.2282
     33 C         141.2885  141.9252  171.3876 C.3     1  UNL1        0.1150
     34 N         142.6589  142.5344  171.3580 N.3     1  UNL1       -0.2933
     35 H         143.2019  142.0732  172.0880 H       1  UNL1        0.1236
@<TRIPOS>BOND
     1    25    24    1
     2    25    26    1
     3    26    27    1
     4    27    28   ar
     5    28    29   ar
     6    29    30   ar
     7    30    31   ar
     8    31    32   ar
     9    32    23    1
    10    23     1    1
    11     1     2   ar
    12     2     3   ar
    13     3     4   ar
    14     4     5   ar
    15     5     6   ar
    16     6     7   ar
    17     7     8   ar
    18     8     9   am
    19     9    10    2
    20     9    11   am
    21    11    14    1
    22    14    15   ar
    23    15    16   ar
    24    16    19    1
    25    19    20    1
    26    19    21    1
    27    19    22    1
    28    16    17   ar
    29    17    18   ar
    30     5    12   ar
    31    28    33    1
    32    33    34    1
    33    34    25    1
    34    32    27   ar
    35    12     1   ar
    36     8     4   ar
    37    18    14   ar
    38    11    13    1
    39    34    35    1
@<TRIPOS>MOLECULE
*****
 35 39 0 0 0
SMALL
GASTEIGER

@<TRIPOS>ATOM
      1 C         140.7778  140.6930  163.9320 C.ar    1  UNL1        0.1473
      2 C         139.9244  140.5474  162.7070 C.ar    1  UNL1        0.0390
      3 C         140.4590  139.8332  161.5011 C.ar    1  UNL1        0.0208
      4 C         141.8469  139.2647  161.5202 C.ar    1  UNL1        0.0683
      5 C         142.7002  139.4103  162.7452 C.ar    1  UNL1        0.0208
      6 C         144.0196  138.7509  162.4721 C.ar    1  UNL1        0.0207
      7 C         143.9816  138.1978  161.0783 C.ar    1  UNL1        0.0842
      8 N         142.6388  138.5153  160.4900 N.ar    1  UNL1       -0.2609
      9 C         142.1702  138.1480  159.1133 C.2     1  UNL1        0.3249
     10 O         140.7934  138.5353  158.6614 O.2     1  UNL1       -0.2488
     11 N         143.0786  137.3933  158.1883 N.am    1  UNL1       -0.2484
     12 C         142.1657  140.1245  163.9511 C.ar    1  UNL1        0.0390
     13 H         143.9823  137.1390  158.4849 H       1  UNL1        0.1581
     14 C         142.6099  137.0259  156.8115 C.ar    1  UNL1        0.1773
     15 C         142.3908  135.6341  156.2969 C.ar    1  UNL1        0.0734
     16 C         141.9236  135.7339  154.8750 C.ar    1  UNL1        0.1549
     17 O         141.8541  137.1873  154.5109 O.2     1  UNL1       -0.3565
     18 N         142.2782  137.9859  155.7077 N.ar    1  UNL1       -0.0620
     19 C         141.5854  134.5824  153.9752 C.3     1  UNL1        0.0539
     20 C         141.7053  135.4809  152.7802 C.3     1  UNL1        0.0076
     21 C         141.4654  133.6838  155.1704 C.3     1  UNL1        0.0076
     22 C         141.2472  133.4309  153.0756 C.3     1  UNL1        0.0076
     23 O         140.2431  141.4072  165.1379 O.3     1  UNL1       -0.4363
     24 C         142.4009  143.0046  169.8328 C.3     1  UNL1        0.0175
     25 C         141.3237  142.0289  169.4617 C.3     1  UNL1        0.0589
     26 C         140.9635  141.8217  168.0205 C.3     1  UNL1        0.0481
     27 C         139.8863  140.8460  167.6494 C.ar    1  UNL1        0.0476
     28 C         139.1693  140.0775  168.7196 C.ar    1  UNL1        0.0772
     29 N         138.0921  139.1018  168.3485 N.ar    1  UNL1       -0.2271
     30 C         137.7319  138.8946  166.9073 C.ar    1  UNL1        0.2012
     31 N         138.4489  139.6631  165.8370 N.ar    1  UNL1       -0.1893
     32 C         139.5261  140.6388  166.2080 C.ar    1  UNL1        0.2282
     33 C         139.5295  140.2848  170.1608 C.3     1  UNL1        0.1150
     34 N         140.6067  141.2605  170.5319 N.3     1  UNL1       -0.2933
     35 H         141.3163  140.7354  171.0430 H       1  UNL1        0.1236
@<TRIPOS>BOND
     1    25    24    1
     2    25    26    1
     3    26    27    1
     4    27    28   ar
     5    28    29   ar
     6    29    30   ar
     7    30    31   ar
     8    31    32   ar
     9    32    23    1
    10    23     1    1
    11     1     2   ar
    12     2     3   ar
    13     3     4   ar
    14     4     5   ar
    15     5     6   ar
    16     6     7   ar
    17     7     8   ar
    18     8     9   am
    19     9    10    2
    20     9    11   am
    21    11    14    1
    22    14    15   ar
    23    15    16   ar
    24    16    19    1
    25    19    20    1
    26    19    21    1
    27    19    22    1
    28    16    17   ar
    29    17    18   ar
    30     5    12   ar
    31    28    33    1
    32    33    34    1
    33    34    25    1
    34    32    27   ar
    35    12     1   ar
    36     8     4   ar
    37    18    14   ar
    38    11    13    1
    39    34    35    1
@<TRIPOS>MOLECULE
*****
 35 39 0 0 0
SMALL
GASTEIGER

@<TRIPOS>ATOM
      1 C         142.7038  138.5294  158.7570 C.ar    1  UNL1        0.1473
      2 C         143.7125  139.0232  159.7514 C.ar    1  UNL1        0.0390
      3 C         143.3159  139.2280  161.1834 C.ar    1  UNL1        0.0208
      4 C         141.9106  138.9390  161.6211 C.ar    1  UNL1        0.0683
      5 C         140.9019  138.4452  160.6268 C.ar    1  UNL1        0.0208
      6 C         139.6008  138.2464  161.3462 C.ar    1  UNL1        0.0207
      7 C         139.8053  138.6173  162.7851 C.ar    1  UNL1        0.0842
      8 N         141.2329  139.0453  162.9550 N.ar    1  UNL1       -0.2609
      9 C         141.8708  139.4999  164.2343 C.2     1  UNL1        0.3249
     10 O         143.3165  139.8994  164.2509 O.2     1  UNL1       -0.2488
     11 N         141.0628  139.5550  165.4970 N.am    1  UNL1       -0.2484
     12 C         141.2985  138.2404  159.1947 C.ar    1  UNL1        0.0390
     13 H         140.1140  139.2928  165.4861 H       1  UNL1        0.1581
     14 C         141.7007  140.0096  166.7763 C.ar    1  UNL1        0.1773
     15 C         141.4898  141.3362  167.4438 C.ar    1  UNL1        0.0734
     16 C         142.3202  141.3639  168.6927 C.ar    1  UNL1        0.1549
     17 O         143.0443  140.0544  168.7969 O.2     1  UNL1       -0.3565
     18 N         142.6615  139.2174  167.6125 N.ar    1  UNL1       -0.0620
     19 C         142.4106  142.5014  169.6663 C.3     1  UNL1        0.0539
     20 C         143.8677  142.2101  169.8712 C.3     1  UNL1        0.0076
     21 C         140.9534  142.7926  169.4614 C.3     1  UNL1        0.0076
     22 C         142.5010  143.6388  170.6399 C.3     1  UNL1        0.0076
     23 O         143.1004  138.3246  157.3250 O.3     1  UNL1       -0.4363
     24 C         144.4847  133.1271  157.8901 C.3     1  UNL1        0.0175
     25 C         143.4670  133.8477  157.0563 C.3     1  UNL1        0.0589
     26 C         143.3448  135.3400  157.1459 C.3     1  UNL1        0.0481
     27 C         142.3271  136.0605  156.3121 C.ar    1  UNL1        0.0476
     28 C         141.4316  135.2888  155.3889 C.ar    1  UNL1        0.0772
     29 N         140.4139  136.0093  154.5551 N.ar    1  UNL1       -0.2271
     30 C         140.2917  137.5016  154.6447 C.ar    1  UNL1        0.2012
     31 N         141.1872  138.2734  155.5680 N.ar    1  UNL1       -0.1893
     32 C         142.2049  137.5529  156.4017 C.ar    1  UNL1        0.2282
     33 C         141.5538  133.7965  155.2994 C.3     1  UNL1        0.1150
     34 N         142.5715  133.0759  156.1331 N.3     1  UNL1       -0.2933
     35 H         143.1788  132.5725  155.4864 H       1  UNL1        0.1236
@<TRIPOS>BOND
     1    25    24    1
     2    25    26    1
     3    26    27    1
     4    27    28   ar
     5    28    29   ar
     6    29    30   ar
     7    30    31   ar
     8    31    32   ar
     9    32    23    1
    10    23     1    1
    11     1     2   ar
    12     2     3   ar
    13     3     4   ar
    14     4     5   ar
    15     5     6   ar
    16     6     7   ar
    17     7     8   ar
    18     8     9   am
    19     9    10    2
    20     9    11   am
    21    11    14    1
    22    14    15   ar
    23    15    16   ar
    24    16    19    1
    25    19    20    1
    26    19    21    1
    27    19    22    1
    28    16    17   ar
    29    17    18   ar
    30     5    12   ar
    31    28    33    1
    32    33    34    1
    33    34    25    1
    34    32    27   ar
    35    12     1   ar
    36     8     4   ar
    37    18    14   ar
    38    11    13    1
    39    34    35    1
