@<TRIPOS>MOLECULE
*****
 22 24 0 0 0
SMALL
GASTEIGER

@<TRIPOS>ATOM
      1 C         140.1331  144.4486  164.3614 C.ar    1  UNL1        0.0952
      2 C         140.9913  143.3821  164.9748 C.ar    1  UNL1        0.0146
      3 C         142.3565  143.4754  164.3605 C.ar    1  UNL1        0.0369
      4 S         142.3421  144.5995  163.3674 S.2     1  UNL1       -0.0721
      5 C         140.9680  145.2009  163.3680 C.ar    1  UNL1        0.0782
      6 N         140.5093  146.3525  162.5234 N.pl3   1  UNL1       -0.3519
      7 H         141.1347  146.7834  161.8970 H       1  UNL1        0.1428
      8 H         139.5827  146.6774  162.5954 H       1  UNL1        0.1428
      9 C         140.5598  142.3956  166.0192 C.ar    1  UNL1        0.0040
     10 C         139.8414  141.1423  165.6158 C.ar    1  UNL1        0.0033
     11 C         139.4101  140.1558  166.6602 C.ar    1  UNL1        0.0402
     12 C         139.6971  140.4227  168.1080 C.ar    1  UNL1        0.1764
     13 C         140.4156  141.6761  168.5115 C.ar    1  UNL1        0.1764
     14 C         140.8470  142.6626  167.4672 C.ar    1  UNL1        0.0402
     15 O         140.5584  141.6684  170.0047 O.3     1  UNL1       -0.4346
     16 C         139.9281  140.4101  170.5240 C.3     1  UNL1        0.4294
     17 O         139.3959  139.6403  169.3518 O.3     1  UNL1       -0.4346
     18 C         138.6929  144.7157  164.6846 C.2     1  UNL1        0.3429
     19 O         138.3235  145.3558  165.9899 O.2     1  UNL1       -0.2448
     20 O         137.6222  144.3429  163.7026 O.3     1  UNL1       -0.4454
     21 C         137.3383  141.8151  163.1735 C.3     1  UNL1        0.0513
     22 C         137.8243  143.1783  162.7790 C.3     1  UNL1        0.2089
@<TRIPOS>BOND
     1    21    22    1
     2    22    20    1
     3    20    18    1
     4    18    19    2
     5    18     1    1
     6     1     2   ar
     7     2     9    1
     8     9    10   ar
     9    10    11   ar
    10    11    12   ar
    11    12    13   ar
    12    13    14   ar
    13    13    15    1
    14    15    16    1
    15    16    17    1
    16     2     3   ar
    17     3     4   ar
    18     4     5   ar
    19     5     6    1
    20     5     1   ar
    21    14     9   ar
    22    17    12    1
    23     6     7    1
    24     6     8    1
@<TRIPOS>MOLECULE
*****
 22 24 0 0 0
SMALL
GASTEIGER

@<TRIPOS>ATOM
      1 C         141.8036  139.9586  168.8918 C.ar    1  UNL1        0.0952
      2 C         140.3916  140.4156  168.6741 C.ar    1  UNL1        0.0146
      3 C         139.8416  140.8668  169.9947 C.ar    1  UNL1        0.0369
      4 S         140.9138  140.6886  171.0286 S.2     1  UNL1       -0.0721
      5 C         142.1263  140.1274  170.3469 C.ar    1  UNL1        0.0782
      6 N         143.4322  139.7935  171.0049 N.pl3   1  UNL1       -0.3519
      7 H         143.5482  139.9404  171.9714 H       1  UNL1        0.1428
      8 H         144.1734  139.4275  170.4702 H       1  UNL1        0.1428
      9 C         139.6583  140.4205  167.3655 C.ar    1  UNL1        0.0040
     10 C         138.7672  139.2704  167.0009 C.ar    1  UNL1        0.0033
     11 C         138.0339  139.2754  165.6923 C.ar    1  UNL1        0.0402
     12 C         138.1917  140.4304  164.7485 C.ar    1  UNL1        0.1764
     13 C         139.0829  141.5806  165.1132 C.ar    1  UNL1        0.1764
     14 C         139.8162  141.5757  166.4217 C.ar    1  UNL1        0.0402
     15 O         139.0423  142.5730  163.9891 O.3     1  UNL1       -0.4346
     16 C         138.1261  142.0361  162.9297 C.3     1  UNL1        0.4294
     17 O         137.6004  140.7120  163.3990 O.3     1  UNL1       -0.4346
     18 C         142.7302  139.4264  167.8392 C.2     1  UNL1        0.3429
     19 O         143.5295  138.1845  168.1019 O.2     1  UNL1       -0.2448
     20 O         142.8576  140.1359  166.5238 O.3     1  UNL1       -0.4454
     21 C         141.7338  138.2372  165.1519 C.3     1  UNL1        0.0513
     22 C         142.7119  139.3709  165.2418 C.3     1  UNL1        0.2089
@<TRIPOS>BOND
     1    21    22    1
     2    22    20    1
     3    20    18    1
     4    18    19    2
     5    18     1    1
     6     1     2   ar
     7     2     9    1
     8     9    10   ar
     9    10    11   ar
    10    11    12   ar
    11    12    13   ar
    12    13    14   ar
    13    13    15    1
    14    15    16    1
    15    16    17    1
    16     2     3   ar
    17     3     4   ar
    18     4     5   ar
    19     5     6    1
    20     5     1   ar
    21    14     9   ar
    22    17    12    1
    23     6     7    1
    24     6     8    1
@<TRIPOS>MOLECULE
*****
 22 24 0 0 0
SMALL
GASTEIGER

@<TRIPOS>ATOM
      1 C         140.0943  140.8213  168.8425 C.ar    1  UNL1        0.0952
      2 C         140.7256  142.1164  168.4252 C.ar    1  UNL1        0.0146
      3 C         141.2626  142.7876  169.6545 C.ar    1  UNL1        0.0369
      4 S         140.9632  141.9074  170.8315 S.2     1  UNL1       -0.0721
      5 C         140.2412  140.6922  170.3297 C.ar    1  UNL1        0.0782
      6 N         139.7519  139.5485  171.1679 N.pl3   1  UNL1       -0.3519
      7 H         139.8965  139.5547  172.1417 H       1  UNL1        0.1428
      8 H         139.2861  138.7917  170.7442 H       1  UNL1        0.1428
      9 C         140.8059  142.6472  167.0244 C.ar    1  UNL1        0.0040
     10 C         141.9998  142.3357  166.1717 C.ar    1  UNL1        0.0033
     11 C         142.0801  142.8664  164.7710 C.ar    1  UNL1        0.0402
     12 C         140.9663  143.7086  164.2231 C.ar    1  UNL1        0.1764
     13 C         139.7722  144.0200  165.0759 C.ar    1  UNL1        0.1764
     14 C         139.6920  143.4894  166.4766 C.ar    1  UNL1        0.0402
     15 O         138.8357  144.8701  164.2695 O.3     1  UNL1       -0.4346
     16 C         139.4509  145.0840  162.9184 C.3     1  UNL1        0.4294
     17 O         140.7677  144.3662  162.8896 O.3     1  UNL1       -0.4346
     18 C         139.4324  139.8296  167.9324 C.2     1  UNL1        0.3429
     19 O         138.1735  139.1383  168.3652 O.2     1  UNL1       -0.2448
     20 O         140.0294  139.5291  166.5896 O.3     1  UNL1       -0.4454
     21 C         138.2952  140.4793  164.9045 C.3     1  UNL1        0.0513
     22 C         139.1382  139.3409  165.3978 C.3     1  UNL1        0.2089
@<TRIPOS>BOND
     1    21    22    1
     2    22    20    1
     3    20    18    1
     4    18    19    2
     5    18     1    1
     6     1     2   ar
     7     2     9    1
     8     9    10   ar
     9    10    11   ar
    10    11    12   ar
    11    12    13   ar
    12    13    14   ar
    13    13    15    1
    14    15    16    1
    15    16    17    1
    16     2     3   ar
    17     3     4   ar
    18     4     5   ar
    19     5     6    1
    20     5     1   ar
    21    14     9   ar
    22    17    12    1
    23     6     7    1
    24     6     8    1
@<TRIPOS>MOLECULE
*****
 22 24 0 0 0
SMALL
GASTEIGER

@<TRIPOS>ATOM
      1 C         140.0950  140.0471  168.4493 C.ar    1  UNL1        0.0952
      2 C         141.5687  140.3216  168.3940 C.ar    1  UNL1        0.0146
      3 C         142.0185  140.7168  169.7693 C.ar    1  UNL1        0.0369
      4 S         140.8228  140.6866  170.6746 S.2     1  UNL1       -0.0721
      5 C         139.6341  140.2728  169.8587 C.ar    1  UNL1        0.0782
      6 N         138.2308  140.1126  170.3637 N.pl3   1  UNL1       -0.3519
      7 H         138.0259  140.2847  171.3111 H       1  UNL1        0.1428
      8 H         137.5146  139.8355  169.7477 H       1  UNL1        0.1428
      9 C         142.4397  140.2188  167.1770 C.ar    1  UNL1        0.0040
     10 C         142.9030  138.8752  166.6976 C.ar    1  UNL1        0.0033
     11 C         143.7739  138.7724  165.4807 C.ar    1  UNL1        0.0402
     12 C         144.1815  140.0134  164.7432 C.ar    1  UNL1        0.1764
     13 C         143.7182  141.3571  165.2226 C.ar    1  UNL1        0.1764
     14 C         142.8473  141.4598  166.4395 C.ar    1  UNL1        0.0402
     15 O         144.2770  142.3973  164.2976 O.3     1  UNL1       -0.4346
     16 C         145.0857  141.6964  163.2465 C.3     1  UNL1        0.4294
     17 O         145.0267  140.2231  163.5219 O.3     1  UNL1       -0.4346
     18 C         139.2336  139.6218  167.2973 C.2     1  UNL1        0.3429
     19 O         138.0260  138.7658  167.5398 O.2     1  UNL1       -0.2448
     20 O         139.5798  140.0525  165.9029 O.3     1  UNL1       -0.4454
     21 C         139.9543  137.7463  164.7664 C.3     1  UNL1        0.0513
     22 C         139.3506  139.1194  164.7510 C.3     1  UNL1        0.2089
@<TRIPOS>BOND
     1    21    22    1
     2    22    20    1
     3    20    18    1
     4    18    19    2
     5    18     1    1
     6     1     2   ar
     7     2     9    1
     8     9    10   ar
     9    10    11   ar
    10    11    12   ar
    11    12    13   ar
    12    13    14   ar
    13    13    15    1
    14    15    16    1
    15    16    17    1
    16     2     3   ar
    17     3     4   ar
    18     4     5   ar
    19     5     6    1
    20     5     1   ar
    21    14     9   ar
    22    17    12    1
    23     6     7    1
    24     6     8    1
@<TRIPOS>MOLECULE
*****
 22 24 0 0 0
SMALL
GASTEIGER

@<TRIPOS>ATOM
      1 C         142.6603  139.8139  168.3070 C.ar    1  UNL1        0.0952
      2 C         142.2832  141.2623  168.2079 C.ar    1  UNL1        0.0146
      3 C         142.0107  141.7663  169.5941 C.ar    1  UNL1        0.0369
      4 S         142.2193  140.6293  170.5500 S.2     1  UNL1       -0.0721
      5 C         142.6208  139.4227  169.7545 C.ar    1  UNL1        0.0782
      6 N         142.9288  138.0635  170.3092 N.pl3   1  UNL1       -0.3519
      7 H         142.8749  137.9039  171.2792 H       1  UNL1        0.1428
      8 H         143.1847  137.3310  169.7033 H       1  UNL1        0.1428
      9 C         142.1943  142.0657  166.9442 C.ar    1  UNL1        0.0040
     10 C         140.8534  142.4482  166.3915 C.ar    1  UNL1        0.0033
     11 C         140.7645  143.2516  165.1279 C.ar    1  UNL1        0.0402
     12 C         142.0165  143.6724  164.4170 C.ar    1  UNL1        0.1764
     13 C         143.3574  143.2899  164.9698 C.ar    1  UNL1        0.1764
     14 C         143.4464  142.4865  166.2333 C.ar    1  UNL1        0.0402
     15 O         144.4105  143.8439  164.0564 O.3     1  UNL1       -0.4346
     16 C         143.7203  144.5688  162.9392 C.3     1  UNL1        0.4294
     17 O         142.2408  144.4629  163.1621 O.3     1  UNL1       -0.4346
     18 C         143.0147  138.9145  167.1600 C.2     1  UNL1        0.3429
     19 O         144.0300  137.8262  167.3462 O.2     1  UNL1       -0.2448
     20 O         142.3537  139.1035  165.8269 O.3     1  UNL1       -0.4454
     21 C         144.5152  139.5027  164.4418 C.3     1  UNL1        0.0513
     22 C         143.1419  138.9121  164.5651 C.3     1  UNL1        0.2089
@<TRIPOS>BOND
     1    21    22    1
     2    22    20    1
     3    20    18    1
     4    18    19    2
     5    18     1    1
     6     1     2   ar
     7     2     9    1
     8     9    10   ar
     9    10    11   ar
    10    11    12   ar
    11    12    13   ar
    12    13    14   ar
    13    13    15    1
    14    15    16    1
    15    16    17    1
    16     2     3   ar
    17     3     4   ar
    18     4     5   ar
    19     5     6    1
    20     5     1   ar
    21    14     9   ar
    22    17    12    1
    23     6     7    1
    24     6     8    1
@<TRIPOS>MOLECULE
*****
 22 24 0 0 0
SMALL
GASTEIGER

@<TRIPOS>ATOM
      1 C         141.7505  139.8981  168.4445 C.ar    1  UNL1        0.0952
      2 C         140.4726  140.6680  168.2891 C.ar    1  UNL1        0.0146
      3 C         139.8020  140.7287  169.6295 C.ar    1  UNL1        0.0369
      4 S         140.6655  139.9963  170.6134 S.2     1  UNL1       -0.0721
      5 C         141.8697  139.4830  169.8810 C.ar    1  UNL1        0.0782
      6 N         142.9955  138.6932  170.4799 N.pl3   1  UNL1       -0.3519
      7 H         142.9838  138.4685  171.4383 H       1  UNL1        0.1428
      8 H         143.7461  138.3995  169.9146 H       1  UNL1        0.1428
      9 C         139.9559  141.2713  167.0166 C.ar    1  UNL1        0.0040
     10 C         140.2727  142.6983  166.6804 C.ar    1  UNL1        0.0033
     11 C         139.7561  143.3016  165.4080 C.ar    1  UNL1        0.0402
     12 C         138.9225  142.4779  164.4718 C.ar    1  UNL1        0.1764
     13 C         138.6056  141.0508  164.8079 C.ar    1  UNL1        0.1764
     14 C         139.1223  140.4475  166.0804 C.ar    1  UNL1        0.0402
     15 O         137.7663  140.4887  163.6991 O.3     1  UNL1       -0.4346
     16 C         137.5645  141.5684  162.6776 C.3     1  UNL1        0.4294
     17 O         138.2791  142.7978  163.1551 O.3     1  UNL1       -0.4346
     18 C         142.7361  139.5963  167.3548 C.2     1  UNL1        0.3429
     19 O         143.5439  138.3334  167.4028 O.2     1  UNL1       -0.2448
     20 O         142.9138  140.5575  166.2171 O.3     1  UNL1       -0.4454
     21 C         142.3032  141.0761  163.7456 C.3     1  UNL1        0.0513
     22 C         142.7083  140.0946  164.8052 C.3     1  UNL1        0.2089
@<TRIPOS>BOND
     1    21    22    1
     2    22    20    1
     3    20    18    1
     4    18    19    2
     5    18     1    1
     6     1     2   ar
     7     2     9    1
     8     9    10   ar
     9    10    11   ar
    10    11    12   ar
    11    12    13   ar
    12    13    14   ar
    13    13    15    1
    14    15    16    1
    15    16    17    1
    16     2     3   ar
    17     3     4   ar
    18     4     5   ar
    19     5     6    1
    20     5     1   ar
    21    14     9   ar
    22    17    12    1
    23     6     7    1
    24     6     8    1
@<TRIPOS>MOLECULE
*****
 22 24 0 0 0
SMALL
GASTEIGER

@<TRIPOS>ATOM
      1 C         144.4013  142.2856  164.9009 C.ar    1  UNL1        0.0952
      2 C         143.4496  141.3696  165.6116 C.ar    1  UNL1        0.0146
      3 C         143.6221  139.9916  165.0448 C.ar    1  UNL1        0.0369
      4 S         144.6804  140.0560  163.9837 S.2     1  UNL1       -0.0721
      5 C         145.1619  141.4738  163.8948 C.ar    1  UNL1        0.0782
      6 N         146.2186  141.9892  162.9633 N.pl3   1  UNL1       -0.3519
      7 H         146.6634  141.3751  162.3354 H       1  UNL1        0.1428
      8 H         146.4674  142.9416  162.9798 H       1  UNL1        0.1428
      9 C         142.4933  141.7626  166.6985 C.ar    1  UNL1        0.0040
     10 C         141.2427  142.5183  166.3599 C.ar    1  UNL1        0.0033
     11 C         140.2864  142.9113  167.4467 C.ar    1  UNL1        0.0402
     12 C         140.5809  142.5486  168.8721 C.ar    1  UNL1        0.1764
     13 C         141.8316  141.7929  169.2107 C.ar    1  UNL1        0.1764
     14 C         142.7878  141.3999  168.1239 C.ar    1  UNL1        0.0402
     15 O         141.8547  141.5759  170.6947 O.3     1  UNL1       -0.4346
     16 C         140.6183  142.1976  171.2733 C.3     1  UNL1        0.4294
     17 O         139.8310  142.7987  170.1469 O.3     1  UNL1       -0.4346
     18 C         144.5638  143.7555  165.1522 C.2     1  UNL1        0.3429
     19 O         145.3612  144.2313  166.3302 O.2     1  UNL1       -0.2448
     20 O         143.9290  144.7494  164.2254 O.3     1  UNL1       -0.4454
     21 C         141.4685  145.2351  163.5470 C.3     1  UNL1        0.0513
     22 C         142.6956  144.3771  163.4572 C.3     1  UNL1        0.2089
@<TRIPOS>BOND
     1    21    22    1
     2    22    20    1
     3    20    18    1
     4    18    19    2
     5    18     1    1
     6     1     2   ar
     7     2     9    1
     8     9    10   ar
     9    10    11   ar
    10    11    12   ar
    11    12    13   ar
    12    13    14   ar
    13    13    15    1
    14    15    16    1
    15    16    17    1
    16     2     3   ar
    17     3     4   ar
    18     4     5   ar
    19     5     6    1
    20     5     1   ar
    21    14     9   ar
    22    17    12    1
    23     6     7    1
    24     6     8    1
@<TRIPOS>MOLECULE
*****
 22 24 0 0 0
SMALL
GASTEIGER

@<TRIPOS>ATOM
      1 C         139.8624  140.9290  168.4310 C.ar    1  UNL1        0.0952
      2 C         140.5743  142.2053  168.0932 C.ar    1  UNL1        0.0146
      3 C         140.6243  143.0500  169.3317 C.ar    1  UNL1        0.0369
      4 S         139.9431  142.2958  170.4349 S.2     1  UNL1       -0.0721
      5 C         139.4723  140.9850  169.8783 C.ar    1  UNL1        0.0782
      6 N         138.7398  139.9175  170.6359 N.pl3   1  UNL1       -0.3519
      7 H         138.5279  140.0473  171.5885 H       1  UNL1        0.1428
      8 H         138.4711  139.0870  170.1805 H       1  UNL1        0.1428
      9 C         141.1376  142.5724  166.7522 C.ar    1  UNL1        0.0040
     10 C         140.2537  143.1949  165.7124 C.ar    1  UNL1        0.0033
     11 C         140.8169  143.5620  164.3715 C.ar    1  UNL1        0.0402
     12 C         142.2640  143.3065  164.0704 C.ar    1  UNL1        0.1764
     13 C         143.1479  142.6839  165.1102 C.ar    1  UNL1        0.1764
     14 C         142.5847  142.3168  166.4511 C.ar    1  UNL1        0.0402
     15 O         144.5249  142.5528  164.5299 O.3     1  UNL1       -0.4346
     16 C         144.4920  143.0943  163.1314 C.3     1  UNL1        0.4294
     17 O         143.0947  143.5601  162.8474 O.3     1  UNL1       -0.4346
     18 C         139.5885  139.7957  167.4872 C.2     1  UNL1        0.3429
     19 O         138.3132  139.0146  167.6031 O.2     1  UNL1       -0.2448
     20 O         140.5900  139.4436  166.4276 O.3     1  UNL1       -0.4454
     21 C         141.2661  139.6654  163.9288 C.3     1  UNL1        0.0513
     22 C         140.2060  139.5149  164.9793 C.3     1  UNL1        0.2089
@<TRIPOS>BOND
     1    21    22    1
     2    22    20    1
     3    20    18    1
     4    18    19    2
     5    18     1    1
     6     1     2   ar
     7     2     9    1
     8     9    10   ar
     9    10    11   ar
    10    11    12   ar
    11    12    13   ar
    12    13    14   ar
    13    13    15    1
    14    15    16    1
    15    16    17    1
    16     2     3   ar
    17     3     4   ar
    18     4     5   ar
    19     5     6    1
    20     5     1   ar
    21    14     9   ar
    22    17    12    1
    23     6     7    1
    24     6     8    1
@<TRIPOS>MOLECULE
*****
 22 24 0 0 0
SMALL
GASTEIGER

@<TRIPOS>ATOM
      1 C         141.6901  139.6736  168.0174 C.ar    1  UNL1        0.0952
      2 C         140.2584  139.9755  167.6872 C.ar    1  UNL1        0.0146
      3 C         139.5463  140.3010  168.9666 C.ar    1  UNL1        0.0369
      4 S         140.5379  140.2002  170.0876 S.2     1  UNL1       -0.0721
      5 C         141.8628  139.8124  169.5009 C.ar    1  UNL1        0.0782
      6 N         143.1368  139.6007  170.2639 N.pl3   1  UNL1       -0.3519
      7 H         143.1501  139.7162  171.2415 H       1  UNL1        0.1428
      8 H         143.9597  139.3463  169.7870 H       1  UNL1        0.1428
      9 C         139.6463  139.9556  166.3178 C.ar    1  UNL1        0.0040
     10 C         139.1719  141.2323  165.6897 C.ar    1  UNL1        0.0033
     11 C         138.5598  141.2124  164.3204 C.ar    1  UNL1        0.0402
     12 C         138.4221  139.9155  163.5793 C.ar    1  UNL1        0.1764
     13 C         138.8966  138.6387  164.2075 C.ar    1  UNL1        0.1764
     14 C         139.5087  138.6586  165.5767 C.ar    1  UNL1        0.0402
     15 O         138.6316  137.5210  163.2428 O.3     1  UNL1       -0.4346
     16 C         137.9933  138.1072  162.0184 C.3     1  UNL1        0.4294
     17 O         137.8639  139.5870  162.2264 O.3     1  UNL1       -0.4346
     18 C         142.7611  139.2987  167.0364 C.2     1  UNL1        0.3429
     19 O         143.7016  138.1722  167.3468 O.2     1  UNL1       -0.2448
     20 O         142.8915  140.0503  165.7449 O.3     1  UNL1       -0.4454
     21 C         143.8015  139.0703  163.5174 C.3     1  UNL1        0.0513
     22 C         144.0414  139.7660  164.8245 C.3     1  UNL1        0.2089
@<TRIPOS>BOND
     1    21    22    1
     2    22    20    1
     3    20    18    1
     4    18    19    2
     5    18     1    1
     6     1     2   ar
     7     2     9    1
     8     9    10   ar
     9    10    11   ar
    10    11    12   ar
    11    12    13   ar
    12    13    14   ar
    13    13    15    1
    14    15    16    1
    15    16    17    1
    16     2     3   ar
    17     3     4   ar
    18     4     5   ar
    19     5     6    1
    20     5     1   ar
    21    14     9   ar
    22    17    12    1
    23     6     7    1
    24     6     8    1
