@<TRIPOS>MOLECULE
*****
 32 35 0 0 0
SMALL
GASTEIGER

@<TRIPOS>ATOM
      1 C         143.8135  137.8890  166.5609 C.3     1  UNL1        0.0177
      2 C         143.0357  139.1576  166.7495 C.3     1  UNL1        0.0623
      3 C         142.5233  139.5279  168.1098 C.3     1  UNL1        0.0384
      4 C         141.7454  140.7965  168.2986 C.2     1  UNL1       -0.0343
      5 C         141.4799  141.6948  167.1270 C.2     1  UNL1       -0.0106
      6 C         140.7021  142.9633  167.3158 C.2     1  UNL1       -0.0020
      7 C         140.1896  143.3336  168.6761 C.2     1  UNL1        0.0169
      8 C         140.4551  142.4353  169.8476 C.2     1  UNL1        0.0896
      9 N         140.0792  142.5374  171.2961 N.2     1  UNL1       -0.1520
     10 N         140.6247  141.3319  172.0026 N.2     1  UNL1       -0.1507
     11 C         141.3378  140.4848  170.9907 C.2     1  UNL1        0.1054
     12 C         141.2330  141.1667  169.6588 C.3     1  UNL1        0.1032
     13 C         141.9923  141.3245  165.7667 C.3     1  UNL1        0.1069
     14 N         142.7701  140.0560  165.5780 N.3     1  UNL1       -0.2632
     15 C         141.7268  142.2228  164.5952 C.ar    1  UNL1        0.0512
     16 C         140.5687  141.9441  163.6835 C.ar    1  UNL1        0.1399
     17 F         139.6761  140.7669  163.9434 F       1  UNL1       -0.2044
     18 C         140.3032  142.8424  162.5120 C.ar    1  UNL1        0.0295
     19 C         141.1959  144.0196  162.2521 C.ar    1  UNL1        0.0045
     20 C         142.3539  144.2983  163.1637 C.ar    1  UNL1        0.0295
     21 C         142.6194  143.3999  164.3353 C.ar    1  UNL1        0.1399
     22 F         143.7775  143.6787  165.2469 F       1  UNL1       -0.2044
     23 C         140.9304  144.9179  161.0806 C.2     1  UNL1        0.0013
     24 C         141.6170  144.6654  159.7711 C.2     1  UNL1        0.0151
     25 C         141.3515  145.5637  158.5996 C.2     1  UNL1        0.0729
     26 O         142.4941  146.2244  157.8870 O.co2   1  UNL1       -0.5446
     27 O         139.9432  145.8013  158.1407 O.co2   1  UNL1       -0.5446
     28 C         143.2826  139.6856  164.2177 C.3     1  UNL1        0.1398
     29 C         144.3305  140.5301  163.5555 C.3     1  UNL1        0.2786
     30 C         145.3785  141.3746  162.8933 C.3     1  UNL1        0.0737
     31 F         145.2318  140.3400  164.7393 F       1  UNL1       -0.2028
     32 F         143.4292  140.7203  162.3717 F       1  UNL1       -0.2028
@<TRIPOS>UNITY_ATOM_ATTR
26 1
charge -1
@<TRIPOS>BOND
     1     2     1    1
     2     2     3    1
     3     3     4    1
     4     4     5    2
     5     5     6    1
     6     6     7    2
     7     7     8    1
     8     8     9    2
     9     9    10    1
    10    10    11    2
    11    11    12    1
    12     5    13    1
    13    13    15    1
    14    15    16   ar
    15    16    17    1
    16    16    18   ar
    17    18    19   ar
    18    19    23    1
    19    23    24    2
    20    24    25    1
    21    25    26   ar
    22    25    27   ar
    23    19    20   ar
    24    20    21   ar
    25    21    22    1
    26    13    14    1
    27    14    28    1
    28    28    29    1
    29    29    30    1
    30    29    31    1
    31    29    32    1
    32    14     2    1
    33    12     4    1
    34    21    15   ar
    35    12     8    1
@<TRIPOS>MOLECULE
*****
 32 35 0 0 0
SMALL
GASTEIGER

@<TRIPOS>ATOM
      1 C         143.8781  137.8696  166.5680 C.3     1  UNL1        0.0177
      2 C         143.0880  139.1319  166.7478 C.3     1  UNL1        0.0623
      3 C         142.5682  139.5044  168.1047 C.3     1  UNL1        0.0384
      4 C         141.7781  140.7667  168.2846 C.2     1  UNL1       -0.0343
      5 C         141.5077  141.6564  167.1077 C.2     1  UNL1       -0.0106
      6 C         140.7176  142.9186  167.2876 C.2     1  UNL1       -0.0020
      7 C         140.1978  143.2912  168.6445 C.2     1  UNL1        0.0169
      8 C         140.4682  142.4014  169.8214 C.2     1  UNL1        0.0896
      9 N         140.0871  142.5075  171.2683 N.2     1  UNL1       -0.1520
     10 N         140.6417  141.3108  171.9826 N.2     1  UNL1       -0.1507
     11 C         141.3656  140.4651  170.9772 C.2     1  UNL1        0.1054
     12 C         141.2583  141.1392  169.6415 C.3     1  UNL1        0.1032
     13 C         142.0275  141.2839  165.7508 C.3     1  UNL1        0.1069
     14 N         142.8176  140.0217  165.5709 N.3     1  UNL1       -0.2632
     15 C         141.7571  142.1736  164.5739 C.ar    1  UNL1        0.0512
     16 C         142.6388  143.3584  164.3110 C.ar    1  UNL1        0.1399
     17 F         143.7909  143.6533  165.2251 F       1  UNL1       -0.2044
     18 C         142.3684  144.2482  163.1341 C.ar    1  UNL1        0.0295
     19 C         141.2162  143.9532  162.2199 C.ar    1  UNL1        0.0045
     20 C         140.3346  142.7685  162.4827 C.ar    1  UNL1        0.0295
     21 C         140.6050  141.8787  163.6597 C.ar    1  UNL1        0.1399
     22 F         139.7233  140.6940  163.9225 F       1  UNL1       -0.2044
     23 C         140.9458  144.8429  161.0430 C.2     1  UNL1        0.0013
     24 C         141.6441  144.5945  159.7389 C.2     1  UNL1        0.0151
     25 C         141.3737  145.4842  158.5620 C.2     1  UNL1        0.0729
     26 O         139.9772  145.6239  158.0325 O.co2   1  UNL1       -0.5446
     27 O         142.4999  146.2344  157.9145 O.co2   1  UNL1       -0.5446
     28 C         143.3374  139.6491  164.2140 C.3     1  UNL1        0.1398
     29 C         144.3546  140.5181  163.5359 C.3     1  UNL1        0.2786
     30 C         145.3719  141.3872  162.8578 C.3     1  UNL1        0.0737
     31 F         145.2527  140.3999  164.7315 F       1  UNL1       -0.2028
     32 F         143.4566  140.6365  162.3403 F       1  UNL1       -0.2028
@<TRIPOS>UNITY_ATOM_ATTR
26 1
charge -1
@<TRIPOS>BOND
     1     2     1    1
     2     2     3    1
     3     3     4    1
     4     4     5    2
     5     5     6    1
     6     6     7    2
     7     7     8    1
     8     8     9    2
     9     9    10    1
    10    10    11    2
    11    11    12    1
    12     5    13    1
    13    13    15    1
    14    15    16   ar
    15    16    17    1
    16    16    18   ar
    17    18    19   ar
    18    19    23    1
    19    23    24    2
    20    24    25    1
    21    25    26   ar
    22    25    27   ar
    23    19    20   ar
    24    20    21   ar
    25    21    22    1
    26    13    14    1
    27    14    28    1
    28    28    29    1
    29    29    30    1
    30    29    31    1
    31    29    32    1
    32    14     2    1
    33    12     4    1
    34    21    15   ar
    35    12     8    1
@<TRIPOS>MOLECULE
*****
 32 35 0 0 0
SMALL
GASTEIGER

@<TRIPOS>ATOM
      1 C         137.4751  138.3926  167.2405 C.3     1  UNL1        0.0177
      2 C         138.7525  139.1744  167.1551 C.3     1  UNL1        0.0623
      3 C         139.2623  139.9116  168.3579 C.3     1  UNL1        0.0384
      4 C         140.5396  140.6934  168.2726 C.2     1  UNL1       -0.0343
      5 C         141.3071  140.7380  166.9846 C.2     1  UNL1       -0.0106
      6 C         142.5843  141.5198  166.8993 C.2     1  UNL1       -0.0020
      7 C         143.0942  142.2571  168.1021 C.2     1  UNL1        0.0169
      8 C         142.3267  142.2124  169.3901 C.2     1  UNL1        0.0896
      9 N         142.5800  142.8343  170.7314 N.2     1  UNL1       -0.1520
     10 N         141.4592  142.4368  171.6456 N.2     1  UNL1       -0.1507
     11 C         140.5133  141.5693  170.8694 C.2     1  UNL1        0.1054
     12 C         141.0494  141.4306  169.4753 C.3     1  UNL1        0.1032
     13 C         140.7972  140.0008  165.7818 C.3     1  UNL1        0.1069
     14 N         139.5199  139.2190  165.8671 N.3     1  UNL1       -0.2632
     15 C         141.5646  140.0454  164.4938 C.ar    1  UNL1        0.0512
     16 C         142.5874  138.9902  164.1931 C.ar    1  UNL1        0.1399
     17 F         142.8427  137.8903  165.1805 F       1  UNL1       -0.2044
     18 C         143.3549  139.0348  162.9051 C.ar    1  UNL1        0.0295
     19 C         143.0995  140.1348  161.9177 C.ar    1  UNL1        0.0045
     20 C         142.0768  141.1900  162.2183 C.ar    1  UNL1        0.0295
     21 C         141.3093  141.1454  163.5064 C.ar    1  UNL1        0.1399
     22 F         140.2865  142.2006  163.8070 F       1  UNL1       -0.2044
     23 C         143.8670  140.1795  160.6297 C.2     1  UNL1        0.0013
     24 C         143.6277  141.2918  159.6522 C.2     1  UNL1        0.0151
     25 C         144.3951  141.3364  158.3642 C.2     1  UNL1        0.0729
     26 O         144.8978  142.6472  157.8357 O.co2   1  UNL1       -0.5446
     27 O         144.6599  140.0702  157.6047 O.co2   1  UNL1       -0.5446
     28 C         139.0100  138.4818  164.6643 C.3     1  UNL1        0.1398
     29 C         138.4667  139.2438  163.4922 C.3     1  UNL1        0.2786
     30 C         137.9234  140.0059  162.3200 C.3     1  UNL1        0.0737
     31 F         137.6835  140.1197  164.4246 F       1  UNL1       -0.2028
     32 F         139.2499  138.3681  162.5597 F       1  UNL1       -0.2028
@<TRIPOS>UNITY_ATOM_ATTR
26 1
charge -1
@<TRIPOS>BOND
     1     2     1    1
     2     2     3    1
     3     3     4    1
     4     4     5    2
     5     5     6    1
     6     6     7    2
     7     7     8    1
     8     8     9    2
     9     9    10    1
    10    10    11    2
    11    11    12    1
    12     5    13    1
    13    13    15    1
    14    15    16   ar
    15    16    17    1
    16    16    18   ar
    17    18    19   ar
    18    19    23    1
    19    23    24    2
    20    24    25    1
    21    25    26   ar
    22    25    27   ar
    23    19    20   ar
    24    20    21   ar
    25    21    22    1
    26    13    14    1
    27    14    28    1
    28    28    29    1
    29    29    30    1
    30    29    31    1
    31    29    32    1
    32    14     2    1
    33    12     4    1
    34    21    15   ar
    35    12     8    1
@<TRIPOS>MOLECULE
*****
 32 35 0 0 0
SMALL
GASTEIGER

@<TRIPOS>ATOM
      1 C         137.4930  138.3889  167.2389 C.3     1  UNL1        0.0177
      2 C         138.7691  139.1732  167.1588 C.3     1  UNL1        0.0623
      3 C         139.2748  139.9078  168.3649 C.3     1  UNL1        0.0384
      4 C         140.5509  140.6922  168.2849 C.2     1  UNL1       -0.0343
      5 C         141.3213  140.7419  166.9988 C.2     1  UNL1       -0.0106
      6 C         142.5973  141.5262  166.9188 C.2     1  UNL1       -0.0020
      7 C         143.1031  142.2609  168.1249 C.2     1  UNL1        0.0169
      8 C         142.3326  142.2112  169.4110 C.2     1  UNL1        0.0896
      9 N         142.5816  142.8297  170.7547 N.2     1  UNL1       -0.1520
     10 N         141.4594  142.4275  171.6651 N.2     1  UNL1       -0.1507
     11 C         140.5168  141.5605  170.8841 C.2     1  UNL1        0.1054
     12 C         141.0565  141.4268  169.4910 C.3     1  UNL1        0.1032
     13 C         140.8156  140.0072  165.7928 C.3     1  UNL1        0.1069
     14 N         139.5396  139.2229  165.8728 N.3     1  UNL1       -0.2632
     15 C         141.5860  140.0570  164.5067 C.ar    1  UNL1        0.0512
     16 C         141.3278  141.1566  163.5197 C.ar    1  UNL1        0.1399
     17 F         140.2991  142.2065  163.8187 F       1  UNL1       -0.2044
     18 C         142.0983  141.2063  162.2336 C.ar    1  UNL1        0.0295
     19 C         143.1270  140.1563  161.9346 C.ar    1  UNL1        0.0045
     20 C         143.3852  139.0568  162.9215 C.ar    1  UNL1        0.0295
     21 C         142.6147  139.0071  164.2076 C.ar    1  UNL1        0.1399
     22 F         142.8730  137.9074  165.1946 F       1  UNL1       -0.2044
     23 C         143.8974  140.2061  160.6485 C.2     1  UNL1        0.0013
     24 C         143.6219  141.2916  159.6507 C.2     1  UNL1        0.0151
     25 C         144.3924  141.3414  158.3647 C.2     1  UNL1        0.0729
     26 O         144.6626  140.0777  157.6030 O.co2   1  UNL1       -0.5446
     27 O         144.8925  142.6548  157.8404 O.co2   1  UNL1       -0.5446
     28 C         139.0339  138.4882  164.6667 C.3     1  UNL1        0.1398
     29 C         138.4862  139.2524  163.4980 C.3     1  UNL1        0.2786
     30 C         137.9386  140.0167  162.3292 C.3     1  UNL1        0.0737
     31 F         139.2782  138.3885  162.5619 F       1  UNL1       -0.2028
     32 F         137.6942  140.1164  164.4340 F       1  UNL1       -0.2028
@<TRIPOS>UNITY_ATOM_ATTR
26 1
charge -1
@<TRIPOS>BOND
     1     2     1    1
     2     2     3    1
     3     3     4    1
     4     4     5    2
     5     5     6    1
     6     6     7    2
     7     7     8    1
     8     8     9    2
     9     9    10    1
    10    10    11    2
    11    11    12    1
    12     5    13    1
    13    13    15    1
    14    15    16   ar
    15    16    17    1
    16    16    18   ar
    17    18    19   ar
    18    19    23    1
    19    23    24    2
    20    24    25    1
    21    25    26   ar
    22    25    27   ar
    23    19    20   ar
    24    20    21   ar
    25    21    22    1
    26    13    14    1
    27    14    28    1
    28    28    29    1
    29    29    30    1
    30    29    31    1
    31    29    32    1
    32    14     2    1
    33    12     4    1
    34    21    15   ar
    35    12     8    1
@<TRIPOS>MOLECULE
*****
 32 35 0 0 0
SMALL
GASTEIGER

@<TRIPOS>ATOM
      1 C         144.8319  142.2979  164.3141 C.3     1  UNL1        0.0177
      2 C         143.3721  142.5635  164.5346 C.3     1  UNL1        0.0623
      3 C         142.6257  143.4706  163.6018 C.3     1  UNL1        0.0384
      4 C         141.1659  143.7363  163.8222 C.2     1  UNL1       -0.0343
      5 C         140.4526  143.0949  164.9754 C.2     1  UNL1       -0.0106
      6 C         138.9930  143.3606  165.1958 C.2     1  UNL1       -0.0020
      7 C         138.2465  144.2677  164.2630 C.2     1  UNL1        0.0169
      8 C         138.9598  144.9090  163.1098 C.2     1  UNL1        0.0896
      9 N         138.4905  145.8414  162.0326 N.2     1  UNL1       -0.1520
     10 N         139.6602  146.1519  161.1464 N.2     1  UNL1       -0.1507
     11 C         140.8524  145.4115  161.6759 C.2     1  UNL1        0.1054
     12 C         140.4195  144.6433  162.8894 C.3     1  UNL1        0.1032
     13 C         141.1991  142.1879  165.9082 C.3     1  UNL1        0.1069
     14 N         142.6588  141.9222  165.6878 N.3     1  UNL1       -0.2632
     15 C         140.4858  141.5465  167.0614 C.ar    1  UNL1        0.0512
     16 C         140.5277  142.1850  168.4181 C.ar    1  UNL1        0.1399
     17 F         141.2829  143.4649  168.6215 F       1  UNL1       -0.2044
     18 C         139.8144  141.5437  169.5712 C.ar    1  UNL1        0.0295
     19 C         139.0591  140.2637  169.3677 C.ar    1  UNL1        0.0045
     20 C         139.0172  139.6252  168.0111 C.ar    1  UNL1        0.0295
     21 C         139.7306  140.2666  166.8579 C.ar    1  UNL1        0.1399
     22 F         139.6886  139.6280  165.5012 F       1  UNL1       -0.2044
     23 C         138.3458  139.6224  170.5209 C.2     1  UNL1        0.0013
     24 C         136.9822  139.0294  170.3231 C.2     1  UNL1        0.0151
     25 C         136.2689  138.3880  171.4763 C.2     1  UNL1        0.0729
     26 O         136.2803  136.8958  171.6290 O.co2   1  UNL1       -0.5446
     27 O         135.5442  139.2389  172.4768 O.co2   1  UNL1       -0.5446
     28 C         143.4053  141.0151  166.6206 C.3     1  UNL1        0.1398
     29 C         143.3059  139.5272  166.4594 C.3     1  UNL1        0.2786
     30 C         143.2064  138.0392  166.2981 C.3     1  UNL1        0.0737
     31 F         143.6654  139.6603  165.0092 F       1  UNL1       -0.2028
     32 F         142.9463  139.3940  167.9095 F       1  UNL1       -0.2028
@<TRIPOS>UNITY_ATOM_ATTR
26 1
charge -1
@<TRIPOS>BOND
     1     2     1    1
     2     2     3    1
     3     3     4    1
     4     4     5    2
     5     5     6    1
     6     6     7    2
     7     7     8    1
     8     8     9    2
     9     9    10    1
    10    10    11    2
    11    11    12    1
    12     5    13    1
    13    13    15    1
    14    15    16   ar
    15    16    17    1
    16    16    18   ar
    17    18    19   ar
    18    19    23    1
    19    23    24    2
    20    24    25    1
    21    25    26   ar
    22    25    27   ar
    23    19    20   ar
    24    20    21   ar
    25    21    22    1
    26    13    14    1
    27    14    28    1
    28    28    29    1
    29    29    30    1
    30    29    31    1
    31    29    32    1
    32    14     2    1
    33    12     4    1
    34    21    15   ar
    35    12     8    1
@<TRIPOS>MOLECULE
*****
 32 35 0 0 0
SMALL
GASTEIGER

@<TRIPOS>ATOM
      1 C         138.1087  137.5236  165.9334 C.3     1  UNL1        0.0177
      2 C         138.6974  138.8714  166.2285 C.3     1  UNL1        0.0623
      3 C         139.0759  139.2329  167.6342 C.3     1  UNL1        0.0384
      4 C         139.6646  140.5806  167.9294 C.2     1  UNL1       -0.0343
      5 C         139.8747  141.5668  166.8189 C.2     1  UNL1       -0.0106
      6 C         140.4634  142.9145  167.1140 C.2     1  UNL1       -0.0020
      7 C         140.8420  143.2761  168.5197 C.2     1  UNL1        0.0169
      8 C         140.6318  142.2899  169.6302 C.2     1  UNL1        0.0896
      9 N         140.9062  142.3634  171.1031 N.2     1  UNL1       -0.1520
     10 N         140.4871  141.0611  171.7182 N.2     1  UNL1       -0.1507
     11 C         139.9537  140.1827  170.6255 C.2     1  UNL1        0.1054
     12 C         140.0431  140.9422  169.3351 C.3     1  UNL1        0.1032
     13 C         139.4962  141.2052  165.4131 C.3     1  UNL1        0.1069
     14 N         138.9075  139.8576  165.1180 N.3     1  UNL1       -0.2632
     15 C         139.7063  142.1914  164.3026 C.ar    1  UNL1        0.0512
     16 C         141.0252  142.2494  163.5905 C.ar    1  UNL1        0.1399
     17 F         142.1341  141.3211  163.9889 F       1  UNL1       -0.2044
     18 C         141.2354  143.2356  162.4800 C.ar    1  UNL1        0.0295
     19 C         140.1265  144.1639  162.0816 C.ar    1  UNL1        0.0045
     20 C         138.8076  144.1060  162.7936 C.ar    1  UNL1        0.0295
     21 C         138.5975  143.1197  163.9042 C.ar    1  UNL1        0.1399
     22 F         137.2785  143.0619  164.6163 F       1  UNL1       -0.2044
     23 C         140.3366  145.1501  160.9710 C.2     1  UNL1        0.0013
     24 C         140.8980  144.6922  159.6576 C.2     1  UNL1        0.0151
     25 C         141.1082  145.6784  158.5471 C.2     1  UNL1        0.0729
     26 O         139.9270  146.2880  157.8519 O.co2   1  UNL1       -0.5446
     27 O         142.4995  146.0550  158.1318 O.co2   1  UNL1       -0.5446
     28 C         138.5290  139.4960  163.7122 C.3     1  UNL1        0.1398
     29 C         139.5960  139.2727  162.6820 C.3     1  UNL1        0.2786
     30 C         140.6630  139.0494  161.6516 C.3     1  UNL1        0.0737
     31 F         138.8951  140.2175  161.7513 F       1  UNL1       -0.2028
     32 F         140.2969  138.3279  163.6126 F       1  UNL1       -0.2028
@<TRIPOS>UNITY_ATOM_ATTR
26 1
charge -1
@<TRIPOS>BOND
     1     2     1    1
     2     2     3    1
     3     3     4    1
     4     4     5    2
     5     5     6    1
     6     6     7    2
     7     7     8    1
     8     8     9    2
     9     9    10    1
    10    10    11    2
    11    11    12    1
    12     5    13    1
    13    13    15    1
    14    15    16   ar
    15    16    17    1
    16    16    18   ar
    17    18    19   ar
    18    19    23    1
    19    23    24    2
    20    24    25    1
    21    25    26   ar
    22    25    27   ar
    23    19    20   ar
    24    20    21   ar
    25    21    22    1
    26    13    14    1
    27    14    28    1
    28    28    29    1
    29    29    30    1
    30    29    31    1
    31    29    32    1
    32    14     2    1
    33    12     4    1
    34    21    15   ar
    35    12     8    1
@<TRIPOS>MOLECULE
*****
 32 35 0 0 0
SMALL
GASTEIGER

@<TRIPOS>ATOM
      1 C         144.0585  138.3380  160.9452 C.3     1  UNL1        0.0177
      2 C         143.4112  139.6203  161.3774 C.3     1  UNL1        0.0623
      3 C         143.3044  140.7674  160.4168 C.3     1  UNL1        0.0384
      4 C         142.6572  142.0498  160.8489 C.2     1  UNL1       -0.0343
      5 C         142.1168  142.1851  162.2416 C.2     1  UNL1       -0.0106
      6 C         141.4696  143.4673  162.6737 C.2     1  UNL1       -0.0020
      7 C         141.3628  144.6145  161.7131 C.2     1  UNL1        0.0169
      8 C         141.9032  144.4792  160.3204 C.2     1  UNL1        0.0896
      9 N         141.9412  145.4311  159.1617 N.2     1  UNL1       -0.1520
     10 N         142.6120  144.7370  158.0136 N.2     1  UNL1       -0.1507
     11 C         142.9885  143.3562  158.4626 C.2     1  UNL1        0.1054
     12 C         142.5504  143.1969  159.8883 C.3     1  UNL1        0.1032
     13 C         142.2236  141.0379  163.2022 C.3     1  UNL1        0.1069
     14 N         142.8708  139.7556  162.7701 N.3     1  UNL1       -0.2632
     15 C         141.6832  141.1732  164.5949 C.ar    1  UNL1        0.0512
     16 C         142.5871  141.6044  165.7116 C.ar    1  UNL1        0.1399
     17 F         144.0315  141.9004  165.4356 F       1  UNL1       -0.2044
     18 C         142.0467  141.7397  167.1043 C.ar    1  UNL1        0.0295
     19 C         140.6023  141.4437  167.3803 C.ar    1  UNL1        0.0045
     20 C         139.6984  141.0124  166.2637 C.ar    1  UNL1        0.0295
     21 C         140.2389  140.8772  164.8710 C.ar    1  UNL1        0.1399
     22 F         139.3349  140.4459  163.7543 F       1  UNL1       -0.2044
     23 C         140.0619  141.5789  168.7731 C.2     1  UNL1        0.0013
     24 C         140.5697  142.6669  169.6722 C.2     1  UNL1        0.0151
     25 C         140.0293  142.8022  171.0649 C.2     1  UNL1        0.0729
     26 O         138.8625  143.7062  171.3321 O.co2   1  UNL1       -0.5446
     27 O         140.6557  142.0334  172.1903 O.co2   1  UNL1       -0.5446
     28 C         142.9777  138.6084  163.7307 C.3     1  UNL1        0.1398
     29 C         141.7430  137.8746  164.1629 C.3     1  UNL1        0.2786
     30 C         140.5082  137.1407  164.5951 C.3     1  UNL1        0.0737
     31 F         142.1374  138.0564  165.5986 F       1  UNL1       -0.2028
     32 F         141.3484  137.6928  162.7272 F       1  UNL1       -0.2028
@<TRIPOS>UNITY_ATOM_ATTR
26 1
charge -1
@<TRIPOS>BOND
     1     2     1    1
     2     2     3    1
     3     3     4    1
     4     4     5    2
     5     5     6    1
     6     6     7    2
     7     7     8    1
     8     8     9    2
     9     9    10    1
    10    10    11    2
    11    11    12    1
    12     5    13    1
    13    13    15    1
    14    15    16   ar
    15    16    17    1
    16    16    18   ar
    17    18    19   ar
    18    19    23    1
    19    23    24    2
    20    24    25    1
    21    25    26   ar
    22    25    27   ar
    23    19    20   ar
    24    20    21   ar
    25    21    22    1
    26    13    14    1
    27    14    28    1
    28    28    29    1
    29    29    30    1
    30    29    31    1
    31    29    32    1
    32    14     2    1
    33    12     4    1
    34    21    15   ar
    35    12     8    1
@<TRIPOS>MOLECULE
*****
 32 35 0 0 0
SMALL
GASTEIGER

@<TRIPOS>ATOM
      1 C         137.5204  137.9566  166.5404 C.3     1  UNL1        0.0177
      2 C         138.4003  139.1497  166.7692 C.3     1  UNL1        0.0623
      3 C         138.8981  139.4608  168.1495 C.3     1  UNL1        0.0384
      4 C         139.7781  140.6538  168.3784 C.2     1  UNL1       -0.0343
      5 C         140.1602  141.5358  167.2269 C.2     1  UNL1       -0.0106
      6 C         141.0401  142.7288  167.4557 C.2     1  UNL1       -0.0020
      7 C         141.5380  143.0399  168.8361 C.2     1  UNL1        0.0169
      8 C         141.1558  142.1578  169.9876 C.2     1  UNL1        0.0896
      9 N         141.4912  142.2130  171.4486 N.2     1  UNL1       -0.1520
     10 N         140.8186  141.0541  172.1227 N.2     1  UNL1       -0.1507
     11 C         140.0674  140.2826  171.0783 C.2     1  UNL1        0.1054
     12 C         140.2759  140.9648  169.7588 C.3     1  UNL1        0.1032
     13 C         139.6624  141.2247  165.8465 C.3     1  UNL1        0.1069
     14 N         138.7825  140.0317  165.6176 N.3     1  UNL1       -0.2632
     15 C         140.0446  142.1067  164.6950 C.ar    1  UNL1        0.0512
     16 C         139.1597  143.2523  164.3016 C.ar    1  UNL1        0.1399
     17 F         137.8926  143.5158  165.0599 F       1  UNL1       -0.2044
     18 C         139.5418  144.1343  163.1501 C.ar    1  UNL1        0.0295
     19 C         140.8090  143.8707  162.3919 C.ar    1  UNL1        0.0045
     20 C         141.6939  142.7252  162.7851 C.ar    1  UNL1        0.0295
     21 C         141.3117  141.8432  163.9367 C.ar    1  UNL1        0.1399
     22 F         142.1966  140.6976  164.3299 F       1  UNL1       -0.2044
     23 C         141.1912  144.7527  161.2403 C.2     1  UNL1        0.0013
     24 C         140.5570  144.5484  159.8965 C.2     1  UNL1        0.0151
     25 C         140.9392  145.4304  158.7449 C.2     1  UNL1        0.0729
     26 O         139.8743  146.0519  157.8906 O.co2   1  UNL1       -0.5446
     27 O         142.3862  145.6909  158.4478 O.co2   1  UNL1       -0.5446
     28 C         138.2847  139.7206  164.2372 C.3     1  UNL1        0.1398
     29 C         139.0214  138.7361  163.3784 C.3     1  UNL1        0.2786
     30 C         139.7583  137.7515  162.5195 C.3     1  UNL1        0.0737
     31 F         140.1009  138.6392  164.4154 F       1  UNL1       -0.2028
     32 F         137.9421  138.8329  162.3414 F       1  UNL1       -0.2028
@<TRIPOS>UNITY_ATOM_ATTR
26 1
charge -1
@<TRIPOS>BOND
     1     2     1    1
     2     2     3    1
     3     3     4    1
     4     4     5    2
     5     5     6    1
     6     6     7    2
     7     7     8    1
     8     8     9    2
     9     9    10    1
    10    10    11    2
    11    11    12    1
    12     5    13    1
    13    13    15    1
    14    15    16   ar
    15    16    17    1
    16    16    18   ar
    17    18    19   ar
    18    19    23    1
    19    23    24    2
    20    24    25    1
    21    25    26   ar
    22    25    27   ar
    23    19    20   ar
    24    20    21   ar
    25    21    22    1
    26    13    14    1
    27    14    28    1
    28    28    29    1
    29    29    30    1
    30    29    31    1
    31    29    32    1
    32    14     2    1
    33    12     4    1
    34    21    15   ar
    35    12     8    1
@<TRIPOS>MOLECULE
*****
 32 35 0 0 0
SMALL
GASTEIGER

@<TRIPOS>ATOM
      1 C         144.2105  138.4260  160.9648 C.3     1  UNL1        0.0177
      2 C         142.8399  138.9330  161.3034 C.3     1  UNL1        0.0623
      3 C         141.8058  139.0755  160.2262 C.3     1  UNL1        0.0384
      4 C         140.4352  139.5824  160.5647 C.2     1  UNL1       -0.0343
      5 C         140.0987  139.9468  161.9803 C.2     1  UNL1       -0.0106
      6 C         138.7283  140.4537  162.3187 C.2     1  UNL1       -0.0020
      7 C         137.6940  140.5963  161.2416 C.2     1  UNL1        0.0169
      8 C         138.0305  140.2318  159.8260 C.2     1  UNL1        0.0896
      9 N         137.2238  140.2666  158.5618 N.2     1  UNL1       -0.1520
     10 N         138.0959  139.7812  157.4421 N.2     1  UNL1       -0.1507
     11 C         139.4415  139.4464  158.0141 C.2     1  UNL1        0.1054
     12 C         139.4011  139.7249  159.4875 C.3     1  UNL1        0.1032
     13 C         141.1330  139.8043  163.0574 C.3     1  UNL1        0.1069
     14 N         142.5034  139.2974  162.7190 N.3     1  UNL1       -0.2632
     15 C         140.7965  140.1687  164.4730 C.ar    1  UNL1        0.0512
     16 C         140.9760  141.5805  164.9471 C.ar    1  UNL1        0.1399
     17 F         141.4919  142.6279  164.0054 F       1  UNL1       -0.2044
     18 C         140.6395  141.9449  166.3627 C.ar    1  UNL1        0.0295
     19 C         140.1235  140.8975  167.3043 C.ar    1  UNL1        0.0045
     20 C         139.9440  139.4858  166.8304 C.ar    1  UNL1        0.0295
     21 C         140.2805  139.1213  165.4147 C.ar    1  UNL1        0.1399
     22 F         140.1010  137.7095  164.9408 F       1  UNL1       -0.2044
     23 C         139.7871  141.2619  168.7200 C.2     1  UNL1        0.0013
     24 C         140.4293  142.4570  169.3596 C.2     1  UNL1        0.0151
     25 C         140.0929  142.8214  170.7752 C.2     1  UNL1        0.0729
     26 O         139.1956  143.9903  171.0558 O.co2   1  UNL1       -0.5446
     27 O         140.6538  142.0170  171.9103 O.co2   1  UNL1       -0.5446
     28 C         143.5377  139.1549  163.7961 C.3     1  UNL1        0.1398
     29 C         144.6399  140.1650  163.9160 C.3     1  UNL1        0.2786
     30 C         145.7422  141.1753  164.0359 C.3     1  UNL1        0.0737
     31 F         145.4869  139.1558  164.6330 F       1  UNL1       -0.2028
     32 F         143.7930  141.1743  163.1990 F       1  UNL1       -0.2028
@<TRIPOS>UNITY_ATOM_ATTR
26 1
charge -1
@<TRIPOS>BOND
     1     2     1    1
     2     2     3    1
     3     3     4    1
     4     4     5    2
     5     5     6    1
     6     6     7    2
     7     7     8    1
     8     8     9    2
     9     9    10    1
    10    10    11    2
    11    11    12    1
    12     5    13    1
    13    13    15    1
    14    15    16   ar
    15    16    17    1
    16    16    18   ar
    17    18    19   ar
    18    19    23    1
    19    23    24    2
    20    24    25    1
    21    25    26   ar
    22    25    27   ar
    23    19    20   ar
    24    20    21   ar
    25    21    22    1
    26    13    14    1
    27    14    28    1
    28    28    29    1
    29    29    30    1
    30    29    31    1
    31    29    32    1
    32    14     2    1
    33    12     4    1
    34    21    15   ar
    35    12     8    1
