@<TRIPOS>MOLECULE
*****
 37 42 0 0 0
SMALL
GASTEIGER

@<TRIPOS>ATOM
      1 C         140.7534  141.4202  166.6670 C.ar    1  UNL1        0.0844
      2 N         140.4806  141.3044  168.1374 N.ar    1  UNL1       -0.2240
      3 C         141.2566  140.3269  168.9694 C.ar    1  UNL1        0.1988
      4 N         142.3052  139.4651  168.3310 N.ar    1  UNL1       -0.2240
      5 C         142.5780  139.5808  166.8605 C.ar    1  UNL1        0.0845
      6 C         143.6266  138.7190  166.2221 C.ar    1  UNL1        0.0192
      7 C         143.8994  138.8348  164.7517 C.ar    1  UNL1        0.0016
      8 C         143.1234  139.8124  163.9196 C.ar    1  UNL1        0.0016
      9 C         142.0748  140.6742  164.5580 C.ar    1  UNL1        0.0030
     10 C         141.8020  140.5584  166.0285 C.ar    1  UNL1        0.0354
     11 C         143.3962  139.9281  162.4492 C.ar    1  UNL1        0.0192
     12 C         143.6100  138.6922  161.6265 C.ar    1  UNL1        0.0988
     13 N         143.8827  138.8079  160.1561 N.ar    1  UNL1       -0.2438
     14 C         143.9417  140.1596  159.5083 C.ar    1  UNL1        0.0813
     15 C         144.2144  140.2753  158.0379 C.ar    1  UNL1        0.0191
     16 C         144.2734  141.6270  157.3901 C.ar    1  UNL1        0.0015
     17 C         144.0596  142.8629  158.2128 C.ar    1  UNL1        0.0001
     18 C         143.7869  142.7471  159.6832 C.ar    1  UNL1        0.0015
     19 C         143.7279  141.3955  160.3310 C.ar    1  UNL1        0.0177
     20 C         143.4552  141.2798  161.8015 C.ar    1  UNL1        0.0030
     21 C         138.8235  143.0267  163.5937 C.ar    1  UNL1        0.0536
     22 C         138.4256  144.3529  164.1707 C.ar    1  UNL1        0.0045
     23 C         138.8036  144.7015  165.5798 C.ar    1  UNL1        0.0002
     24 C         139.5795  143.7239  166.4119 C.ar    1  UNL1        0.0015
     25 C         139.9774  142.3978  165.8349 C.ar    1  UNL1        0.0179
     26 C         139.5994  142.0492  164.4258 C.ar    1  UNL1        0.0060
     27 C         140.9661  144.8683  156.1763 C.3     1  UNL1        0.0948
     28 C         141.3441  145.2169  157.5854 C.2     1  UNL1        0.2262
     29 O         142.4468  146.2002  157.8447 O.2     1  UNL1       -0.2749
     30 N         140.6195  144.5822  158.7352 N.am    1  UNL1       -0.2760
     31 C         140.9975  144.9308  160.1443 C.3     1  UNL1        0.1149
     32 C         140.2729  144.2961  161.2941 C.3     1  UNL1        0.1152
     33 N         139.1702  143.3128  161.0348 N.am    1  UNL1       -0.2726
     34 C         138.4455  142.6781  162.1846 C.2     1  UNL1        0.2491
     35 O         137.3428  141.6947  161.9253 O.2     1  UNL1       -0.2699
     36 C         138.7922  142.9642  159.6257 C.3     1  UNL1        0.1152
     37 C         139.5169  143.5989  158.4759 C.3     1  UNL1        0.1149
@<TRIPOS>BOND
     1    27    28    1
     2    28    29    2
     3    28    30   am
     4    30    31    1
     5    31    32    1
     6    32    33    1
     7    33    34   am
     8    34    35    2
     9    34    21    1
    10    21    22   ar
    11    22    23   ar
    12    23    24   ar
    13    24    25   ar
    14    25     1    1
    15     1     2   ar
    16     2     3   ar
    17     3     4   ar
    18     4     5   ar
    19     5     6   ar
    20     6     7   ar
    21     7     8   ar
    22     8    11    1
    23    11    12   ar
    24    12    13   ar
    25    13    14   ar
    26    14    15   ar
    27    15    16   ar
    28    16    17   ar
    29    17    18   ar
    30    18    19   ar
    31    19    20   ar
    32     8     9   ar
    33     9    10   ar
    34    25    26   ar
    35    33    36    1
    36    36    37    1
    37    37    30    1
    38    26    21   ar
    39    10     1   ar
    40    10     5   ar
    41    20    11   ar
    42    19    14   ar
@<TRIPOS>MOLECULE
*****
 37 42 0 0 0
SMALL
GASTEIGER

@<TRIPOS>ATOM
      1 C         141.0456  141.4817  167.0748 C.ar    1  UNL1        0.0844
      2 N         140.9236  141.7129  168.5518 N.ar    1  UNL1       -0.2240
      3 C         139.9438  140.9126  169.3577 C.ar    1  UNL1        0.1988
      4 N         139.0860  139.8812  168.6866 N.ar    1  UNL1       -0.2240
      5 C         139.2080  139.6501  167.2095 C.ar    1  UNL1        0.0845
      6 C         138.3502  138.6187  166.5384 C.ar    1  UNL1        0.0192
      7 C         138.4722  138.3875  165.0614 C.ar    1  UNL1        0.0016
      8 C         139.4520  139.1878  164.2554 C.ar    1  UNL1        0.0016
      9 C         140.3098  140.2192  164.9265 C.ar    1  UNL1        0.0030
     10 C         140.1878  140.4503  166.4036 C.ar    1  UNL1        0.0354
     11 C         139.5741  138.9566  162.7784 C.ar    1  UNL1        0.0192
     12 C         138.3491  138.9740  161.9128 C.ar    1  UNL1        0.0988
     13 N         138.4711  138.7428  160.4358 N.ar    1  UNL1       -0.2438
     14 C         139.8180  138.4943  159.8243 C.ar    1  UNL1        0.0813
     15 C         139.9401  138.2632  158.3472 C.ar    1  UNL1        0.0191
     16 C         141.2870  138.0147  157.7357 C.ar    1  UNL1        0.0015
     17 C         142.5120  137.9973  158.6012 C.ar    1  UNL1        0.0001
     18 C         142.3900  138.2285  160.0783 C.ar    1  UNL1        0.0015
     19 C         141.0430  138.4770  160.6898 C.ar    1  UNL1        0.0177
     20 C         140.9210  138.7081  162.1669 C.ar    1  UNL1        0.0030
     21 C         142.5952  143.6571  164.1394 C.ar    1  UNL1        0.0536
     22 C         143.9851  143.8825  164.6568 C.ar    1  UNL1        0.0045
     23 C         144.3950  143.3076  165.9802 C.ar    1  UNL1        0.0002
     24 C         143.4152  142.5073  166.7862 C.ar    1  UNL1        0.0015
     25 C         142.0254  142.2820  166.2688 C.ar    1  UNL1        0.0179
     26 C         141.6155  142.8569  164.9454 C.ar    1  UNL1        0.0060
     27 C         143.5722  142.1924  156.3999 C.3     1  UNL1        0.0948
     28 C         143.9822  141.6176  157.7233 C.2     1  UNL1        0.2262
     29 O         144.8414  140.3890  157.7735 O.2     1  UNL1       -0.2749
     30 N         143.5330  142.2711  158.9965 N.am    1  UNL1       -0.2760
     31 C         143.9429  141.6962  160.3199 C.3     1  UNL1        0.1149
     32 C         143.4937  142.3498  161.5930 C.3     1  UNL1        0.1152
     33 N         142.6345  143.5784  161.5428 N.am    1  UNL1       -0.2726
     34 C         142.1853  144.2320  162.8160 C.2     1  UNL1        0.2491
     35 O         141.3260  145.4605  162.7658 O.2     1  UNL1       -0.2699
     36 C         142.2245  144.1533  160.2194 C.3     1  UNL1        0.1152
     37 C         142.6738  143.4996  158.9462 C.3     1  UNL1        0.1149
@<TRIPOS>BOND
     1    27    28    1
     2    28    29    2
     3    28    30   am
     4    30    31    1
     5    31    32    1
     6    32    33    1
     7    33    34   am
     8    34    35    2
     9    34    21    1
    10    21    22   ar
    11    22    23   ar
    12    23    24   ar
    13    24    25   ar
    14    25     1    1
    15     1     2   ar
    16     2     3   ar
    17     3     4   ar
    18     4     5   ar
    19     5     6   ar
    20     6     7   ar
    21     7     8   ar
    22     8    11    1
    23    11    12   ar
    24    12    13   ar
    25    13    14   ar
    26    14    15   ar
    27    15    16   ar
    28    16    17   ar
    29    17    18   ar
    30    18    19   ar
    31    19    20   ar
    32     8     9   ar
    33     9    10   ar
    34    25    26   ar
    35    33    36    1
    36    36    37    1
    37    37    30    1
    38    26    21   ar
    39    10     1   ar
    40    10     5   ar
    41    20    11   ar
    42    19    14   ar
@<TRIPOS>MOLECULE
*****
 37 42 0 0 0
SMALL
GASTEIGER

@<TRIPOS>ATOM
      1 C         141.4581  141.6508  167.1343 C.ar    1  UNL1        0.0844
      2 N         141.7633  141.6090  168.6023 N.ar    1  UNL1       -0.2240
      3 C         140.9482  140.7398  169.5133 C.ar    1  UNL1        0.1988
      4 N         139.8279  139.9124  168.9563 N.ar    1  UNL1       -0.2240
      5 C         139.5227  139.9541  167.4883 C.ar    1  UNL1        0.0845
      6 C         138.4023  139.1267  166.9314 C.ar    1  UNL1        0.0192
      7 C         138.0971  139.1684  165.4634 C.ar    1  UNL1        0.0016
      8 C         138.9123  140.0377  164.5523 C.ar    1  UNL1        0.0016
      9 C         140.0326  140.8651  165.1092 C.ar    1  UNL1        0.0030
     10 C         140.3378  140.8233  166.5773 C.ar    1  UNL1        0.0354
     11 C         138.6070  140.0794  163.0843 C.ar    1  UNL1        0.0192
     12 C         138.0593  138.8637  162.3972 C.ar    1  UNL1        0.0988
     13 N         137.7541  138.9054  160.9292 N.ar    1  UNL1       -0.2438
     14 C         137.9966  140.1629  160.1482 C.ar    1  UNL1        0.0813
     15 C         137.6914  140.2047  158.6802 C.ar    1  UNL1        0.0191
     16 C         137.9339  141.4621  157.8992 C.ar    1  UNL1        0.0015
     17 C         138.4816  142.6778  158.5862 C.ar    1  UNL1        0.0001
     18 C         138.7868  142.6361  160.0542 C.ar    1  UNL1        0.0015
     19 C         138.5443  141.3786  160.8352 C.ar    1  UNL1        0.0177
     20 C         138.8496  141.3369  162.3033 C.ar    1  UNL1        0.0030
     21 C         142.4418  144.0534  164.1326 C.ar    1  UNL1        0.0536
     22 C         143.9034  144.2585  164.4009 C.ar    1  UNL1        0.0045
     23 C         144.5498  143.5943  165.5803 C.ar    1  UNL1        0.0002
     24 C         143.7347  142.7250  166.4914 C.ar    1  UNL1        0.0015
     25 C         142.2732  142.5200  166.2231 C.ar    1  UNL1        0.0179
     26 C         141.6268  143.1842  165.0437 C.ar    1  UNL1        0.0060
     27 C         142.5759  143.6596  156.2063 C.3     1  UNL1        0.0948
     28 C         143.2223  142.9954  157.3857 C.2     1  UNL1        0.2262
     29 O         144.2255  141.9006  157.1732 O.2     1  UNL1       -0.2749
     30 N         142.8656  143.4259  158.7776 N.am    1  UNL1       -0.2760
     31 C         143.5120  142.7617  159.9570 C.3     1  UNL1        0.1149
     32 C         143.1553  143.1923  161.3489 C.3     1  UNL1        0.1152
     33 N         142.1521  144.2871  161.5614 N.am    1  UNL1       -0.2726
     34 C         141.7954  144.7176  162.9532 C.2     1  UNL1        0.2491
     35 O         140.7922  145.8124  163.1658 O.2     1  UNL1       -0.2699
     36 C         141.5057  144.9513  160.3820 C.3     1  UNL1        0.1152
     37 C         141.8625  144.5207  158.9901 C.3     1  UNL1        0.1149
@<TRIPOS>BOND
     1    27    28    1
     2    28    29    2
     3    28    30   am
     4    30    31    1
     5    31    32    1
     6    32    33    1
     7    33    34   am
     8    34    35    2
     9    34    21    1
    10    21    22   ar
    11    22    23   ar
    12    23    24   ar
    13    24    25   ar
    14    25     1    1
    15     1     2   ar
    16     2     3   ar
    17     3     4   ar
    18     4     5   ar
    19     5     6   ar
    20     6     7   ar
    21     7     8   ar
    22     8    11    1
    23    11    12   ar
    24    12    13   ar
    25    13    14   ar
    26    14    15   ar
    27    15    16   ar
    28    16    17   ar
    29    17    18   ar
    30    18    19   ar
    31    19    20   ar
    32     8     9   ar
    33     9    10   ar
    34    25    26   ar
    35    33    36    1
    36    36    37    1
    37    37    30    1
    38    26    21   ar
    39    10     1   ar
    40    10     5   ar
    41    20    11   ar
    42    19    14   ar
@<TRIPOS>MOLECULE
*****
 37 42 0 0 0
SMALL
GASTEIGER

@<TRIPOS>ATOM
      1 C         141.2507  142.1769  166.6942 C.ar    1  UNL1        0.0844
      2 N         141.2287  142.5515  168.1464 N.ar    1  UNL1       -0.2240
      3 C         141.8566  141.6460  169.1641 C.ar    1  UNL1        0.1988
      4 N         142.5065  140.3658  168.7296 N.ar    1  UNL1       -0.2240
      5 C         142.5285  139.9912  167.2773 C.ar    1  UNL1        0.0845
      6 C         143.1784  138.7111  166.8427 C.ar    1  UNL1        0.0192
      7 C         143.2005  138.3364  165.3905 C.ar    1  UNL1        0.0016
      8 C         142.5726  139.2420  164.3727 C.ar    1  UNL1        0.0016
      9 C         141.9226  140.5221  164.8072 C.ar    1  UNL1        0.0030
     10 C         141.9006  140.8967  166.2596 C.ar    1  UNL1        0.0354
     11 C         142.5946  138.8673  162.9204 C.ar    1  UNL1        0.0192
     12 C         143.8651  138.3770  162.2915 C.ar    1  UNL1        0.0988
     13 N         143.8871  138.0024  160.8392 N.ar    1  UNL1       -0.2438
     14 C         142.6387  138.1181  160.0158 C.ar    1  UNL1        0.0813
     15 C         142.6607  137.7434  158.5635 C.ar    1  UNL1        0.0191
     16 C         141.4123  137.8591  157.7401 C.ar    1  UNL1        0.0015
     17 C         140.1418  138.3494  158.3689 C.ar    1  UNL1        0.0001
     18 C         140.1198  138.7240  159.8212 C.ar    1  UNL1        0.0015
     19 C         141.3682  138.6084  160.6446 C.ar    1  UNL1        0.0177
     20 C         141.3462  138.9830  162.0970 C.ar    1  UNL1        0.0030
     21 C         140.5471  144.0469  163.2652 C.ar    1  UNL1        0.0536
     22 C         139.3671  144.8934  163.6408 C.ar    1  UNL1        0.0045
     23 C         138.8149  144.8343  165.0343 C.ar    1  UNL1        0.0002
     24 C         139.4428  143.9288  166.0520 C.ar    1  UNL1        0.0015
     25 C         140.6228  143.0824  165.6764 C.ar    1  UNL1        0.0179
     26 C         141.1750  143.1415  164.2830 C.ar    1  UNL1        0.0060
     27 C         138.8245  141.3315  156.0086 C.3     1  UNL1        0.0948
     28 C         138.2723  141.2724  157.4020 C.2     1  UNL1        0.2262
     29 O         137.0134  140.5049  157.6780 O.2     1  UNL1       -0.2749
     30 N         138.9791  141.9808  158.5194 N.am    1  UNL1       -0.2760
     31 C         138.4269  141.9217  159.9129 C.3     1  UNL1        0.1149
     32 C         139.1336  142.6301  161.0303 C.3     1  UNL1        0.1152
     33 N         140.3926  143.3976  160.7543 N.am    1  UNL1       -0.2726
     34 C         141.0993  144.1060  161.8718 C.2     1  UNL1        0.2491
     35 O         142.3582  144.8735  161.5958 O.2     1  UNL1       -0.2699
     36 C         140.9447  143.4567  159.3609 C.3     1  UNL1        0.1152
     37 C         140.2379  142.7482  158.2434 C.3     1  UNL1        0.1149
@<TRIPOS>BOND
     1    27    28    1
     2    28    29    2
     3    28    30   am
     4    30    31    1
     5    31    32    1
     6    32    33    1
     7    33    34   am
     8    34    35    2
     9    34    21    1
    10    21    22   ar
    11    22    23   ar
    12    23    24   ar
    13    24    25   ar
    14    25     1    1
    15     1     2   ar
    16     2     3   ar
    17     3     4   ar
    18     4     5   ar
    19     5     6   ar
    20     6     7   ar
    21     7     8   ar
    22     8    11    1
    23    11    12   ar
    24    12    13   ar
    25    13    14   ar
    26    14    15   ar
    27    15    16   ar
    28    16    17   ar
    29    17    18   ar
    30    18    19   ar
    31    19    20   ar
    32     8     9   ar
    33     9    10   ar
    34    25    26   ar
    35    33    36    1
    36    36    37    1
    37    37    30    1
    38    26    21   ar
    39    10     1   ar
    40    10     5   ar
    41    20    11   ar
    42    19    14   ar
@<TRIPOS>MOLECULE
*****
 37 42 0 0 0
SMALL
GASTEIGER

@<TRIPOS>ATOM
      1 C         138.3206  140.6095  162.0800 C.ar    1  UNL1        0.0844
      2 N         137.5070  140.0209  160.9658 N.ar    1  UNL1       -0.2240
      3 C         137.2052  138.5516  160.9527 C.ar    1  UNL1        0.1988
      4 N         137.7170  137.6710  162.0538 N.ar    1  UNL1       -0.2240
      5 C         138.5306  138.2596  163.1681 C.ar    1  UNL1        0.0845
      6 C         139.0424  137.3790  164.2692 C.ar    1  UNL1        0.0192
      7 C         139.8560  137.9676  165.3835 C.ar    1  UNL1        0.0016
      8 C         140.1578  139.4369  165.3966 C.ar    1  UNL1        0.0016
      9 C         139.6460  140.3175  164.2955 C.ar    1  UNL1        0.0030
     10 C         138.8324  139.7288  163.1812 C.ar    1  UNL1        0.0354
     11 C         140.9713  140.0255  166.5109 C.ar    1  UNL1        0.0192
     12 C         142.2740  139.3936  166.9032 C.ar    1  UNL1        0.0988
     13 N         143.0876  139.9822  168.0174 N.ar    1  UNL1       -0.2438
     14 C         142.5986  141.2027  168.7394 C.ar    1  UNL1        0.0813
     15 C         143.4121  141.7913  169.8537 C.ar    1  UNL1        0.0191
     16 C         142.9231  143.0118  170.5756 C.ar    1  UNL1        0.0015
     17 C         141.6205  143.6437  170.1834 C.ar    1  UNL1        0.0001
     18 C         140.8070  143.0551  169.0691 C.ar    1  UNL1        0.0015
     19 C         141.2960  141.8346  168.3471 C.ar    1  UNL1        0.0177
     20 C         140.4823  141.2460  167.2328 C.ar    1  UNL1        0.0030
     21 C         140.0662  144.0863  161.2963 C.ar    1  UNL1        0.0536
     22 C         139.2260  145.0173  162.1194 C.ar    1  UNL1        0.0045
     23 C         138.0840  144.4790  162.9294 C.ar    1  UNL1        0.0002
     24 C         137.7822  143.0097  162.9162 C.ar    1  UNL1        0.0015
     25 C         138.6224  142.0788  162.0932 C.ar    1  UNL1        0.0179
     26 C         139.7644  142.6171  161.2832 C.ar    1  UNL1        0.0060
     27 C         141.8122  145.7098  153.7256 C.3     1  UNL1        0.0948
     28 C         140.6702  145.1715  154.5356 C.2     1  UNL1        0.2262
     29 O         139.3937  144.7699  153.8578 O.2     1  UNL1       -0.2749
     30 N         140.8047  145.0348  156.0232 N.am    1  UNL1       -0.2760
     31 C         139.6627  144.4964  156.8332 C.3     1  UNL1        0.1149
     32 C         139.7972  144.3597  158.3209 C.3     1  UNL1        0.1152
     33 N         141.0737  144.7614  158.9986 N.am    1  UNL1       -0.2726
     34 C         141.2082  144.6247  160.4863 C.2     1  UNL1        0.2491
     35 O         142.4847  145.0263  161.1640 O.2     1  UNL1       -0.2699
     36 C         142.2157  145.2997  158.1886 C.3     1  UNL1        0.1152
     37 C         142.0812  145.4364  156.7009 C.3     1  UNL1        0.1149
@<TRIPOS>BOND
     1    27    28    1
     2    28    29    2
     3    28    30   am
     4    30    31    1
     5    31    32    1
     6    32    33    1
     7    33    34   am
     8    34    35    2
     9    34    21    1
    10    21    22   ar
    11    22    23   ar
    12    23    24   ar
    13    24    25   ar
    14    25     1    1
    15     1     2   ar
    16     2     3   ar
    17     3     4   ar
    18     4     5   ar
    19     5     6   ar
    20     6     7   ar
    21     7     8   ar
    22     8    11    1
    23    11    12   ar
    24    12    13   ar
    25    13    14   ar
    26    14    15   ar
    27    15    16   ar
    28    16    17   ar
    29    17    18   ar
    30    18    19   ar
    31    19    20   ar
    32     8     9   ar
    33     9    10   ar
    34    25    26   ar
    35    33    36    1
    36    36    37    1
    37    37    30    1
    38    26    21   ar
    39    10     1   ar
    40    10     5   ar
    41    20    11   ar
    42    19    14   ar
@<TRIPOS>MOLECULE
*****
 37 42 0 0 0
SMALL
GASTEIGER

@<TRIPOS>ATOM
      1 C         141.4715  143.0598  160.1824 C.ar    1  UNL1        0.0844
      2 N         141.5504  143.8123  158.8873 N.ar    1  UNL1       -0.2240
      3 C         140.8622  145.1377  158.7469 C.ar    1  UNL1        0.1988
      4 N         140.0950  145.7104  159.9016 N.ar    1  UNL1       -0.2240
      5 C         140.0161  144.9578  161.1967 C.ar    1  UNL1        0.0845
      6 C         139.2489  145.5306  162.3515 C.ar    1  UNL1        0.0192
      7 C         139.1700  144.7780  163.6466 C.ar    1  UNL1        0.0016
      8 C         139.8582  143.4526  163.7870 C.ar    1  UNL1        0.0016
      9 C         140.6254  142.8799  162.6323 C.ar    1  UNL1        0.0030
     10 C         140.7043  143.6325  161.3371 C.ar    1  UNL1        0.0354
     11 C         139.7793  142.7000  165.0821 C.ar    1  UNL1        0.0192
     12 C         139.4238  141.2427  165.0823 C.ar    1  UNL1        0.0988
     13 N         139.3449  140.4901  166.3774 N.ar    1  UNL1       -0.2438
     14 C         139.6214  141.1948  167.6724 C.ar    1  UNL1        0.0813
     15 C         139.5425  140.4422  168.9675 C.ar    1  UNL1        0.0191
     16 C         139.8190  141.1469  170.2625 C.ar    1  UNL1        0.0015
     17 C         140.1744  142.6041  170.2624 C.ar    1  UNL1        0.0001
     18 C         140.2533  143.3567  168.9672 C.ar    1  UNL1        0.0015
     19 C         139.9768  142.6520  167.6723 C.ar    1  UNL1        0.0177
     20 C         140.0558  143.4047  166.3771 C.ar    1  UNL1        0.0030
     21 C         142.6341  139.5796  161.6947 C.ar    1  UNL1        0.0536
     22 C         143.5363  139.0836  160.6038 C.ar    1  UNL1        0.0045
     23 C         143.7501  139.9130  159.3723 C.ar    1  UNL1        0.0002
     24 C         143.0619  141.2384  159.2319 C.ar    1  UNL1        0.0015
     25 C         142.1598  141.7343  160.3228 C.ar    1  UNL1        0.0179
     26 C         141.9459  140.9050  161.5543 C.ar    1  UNL1        0.0060
     27 C         142.9990  140.3506  169.5860 C.3     1  UNL1        0.0948
     28 C         143.2129  141.1799  168.3546 C.2     1  UNL1        0.2262
     29 O         143.6250  142.6168  168.4803 O.2     1  UNL1       -0.2749
     30 N         143.0148  140.5725  166.9975 N.am    1  UNL1       -0.2760
     31 C         143.2286  141.4019  165.7661 C.3     1  UNL1        0.1149
     32 C         143.0305  140.7945  164.4090 C.3     1  UNL1        0.1152
     33 N         142.6184  139.3577  164.2833 N.am    1  UNL1       -0.2726
     34 C         142.4202  138.7503  162.9262 C.2     1  UNL1        0.2491
     35 O         142.0082  137.3134  162.8004 O.2     1  UNL1       -0.2699
     36 C         142.4045  138.5283  165.5147 C.3     1  UNL1        0.1152
     37 C         142.6027  139.1358  166.8718 C.3     1  UNL1        0.1149
@<TRIPOS>BOND
     1    27    28    1
     2    28    29    2
     3    28    30   am
     4    30    31    1
     5    31    32    1
     6    32    33    1
     7    33    34   am
     8    34    35    2
     9    34    21    1
    10    21    22   ar
    11    22    23   ar
    12    23    24   ar
    13    24    25   ar
    14    25     1    1
    15     1     2   ar
    16     2     3   ar
    17     3     4   ar
    18     4     5   ar
    19     5     6   ar
    20     6     7   ar
    21     7     8   ar
    22     8    11    1
    23    11    12   ar
    24    12    13   ar
    25    13    14   ar
    26    14    15   ar
    27    15    16   ar
    28    16    17   ar
    29    17    18   ar
    30    18    19   ar
    31    19    20   ar
    32     8     9   ar
    33     9    10   ar
    34    25    26   ar
    35    33    36    1
    36    36    37    1
    37    37    30    1
    38    26    21   ar
    39    10     1   ar
    40    10     5   ar
    41    20    11   ar
    42    19    14   ar
@<TRIPOS>MOLECULE
*****
 37 42 0 0 0
SMALL
GASTEIGER

@<TRIPOS>ATOM
      1 C         140.9071  141.3985  165.5433 C.ar    1  UNL1        0.0844
      2 N         140.4198  141.6017  166.9472 N.ar    1  UNL1       -0.2240
      3 C         139.6526  140.5145  167.6395 C.ar    1  UNL1        0.1988
      4 N         139.3728  139.2240  166.9279 N.ar    1  UNL1       -0.2240
      5 C         139.8602  139.0208  165.5239 C.ar    1  UNL1        0.0845
      6 C         139.5804  137.7304  164.8122 C.ar    1  UNL1        0.0192
      7 C         140.0677  137.5272  163.4083 C.ar    1  UNL1        0.0016
      8 C         140.8349  138.6145  162.7159 C.ar    1  UNL1        0.0016
      9 C         141.1147  139.9049  163.4276 C.ar    1  UNL1        0.0030
     10 C         140.6273  140.1081  164.8316 C.ar    1  UNL1        0.0354
     11 C         141.3223  138.4113  161.3120 C.ar    1  UNL1        0.0192
     12 C         142.7402  137.9893  161.0639 C.ar    1  UNL1        0.0988
     13 N         143.2276  137.7861  159.6599 N.ar    1  UNL1       -0.2438
     14 C         142.2970  138.0049  158.5040 C.ar    1  UNL1        0.0813
     15 C         142.7844  137.8017  157.1000 C.ar    1  UNL1        0.0191
     16 C         141.8539  138.0204  155.9440 C.ar    1  UNL1        0.0015
     17 C         140.4360  138.4424  156.1920 C.ar    1  UNL1        0.0001
     18 C         139.9486  138.6456  157.5960 C.ar    1  UNL1        0.0015
     19 C         140.8792  138.4268  158.7520 C.ar    1  UNL1        0.0177
     20 C         140.3917  138.6300  160.1560 C.ar    1  UNL1        0.0030
     21 C         141.8121  144.3319  163.0280 C.ar    1  UNL1        0.0536
     22 C         143.2087  144.6603  163.4662 C.ar    1  UNL1        0.0045
     23 C         143.8380  143.9015  164.5967 C.ar    1  UNL1        0.0002
     24 C         143.0708  142.8142  165.2891 C.ar    1  UNL1        0.0015
     25 C         141.6743  142.4858  164.8509 C.ar    1  UNL1        0.0179
     26 C         141.0450  143.2446  163.7204 C.ar    1  UNL1        0.0060
     27 C         142.0473  144.5727  155.0979 C.3     1  UNL1        0.0948
     28 C         142.6767  143.8139  156.2285 C.2     1  UNL1        0.2262
     29 O         143.6795  142.7358  155.9417 O.2     1  UNL1       -0.2749
     30 N         142.3032  144.1331  157.6457 N.am    1  UNL1       -0.2760
     31 C         142.9325  143.3742  158.7762 C.3     1  UNL1        0.1149
     32 C         142.5591  143.6934  160.1935 C.3     1  UNL1        0.1152
     33 N         141.5563  144.7715  160.4802 N.am    1  UNL1       -0.2726
     34 C         141.1828  145.0907  161.8975 C.2     1  UNL1        0.2491
     35 O         140.1800  146.1688  162.1842 O.2     1  UNL1       -0.2699
     36 C         140.9269  145.5303  159.3497 C.3     1  UNL1        0.1152
     37 C         141.3004  145.2111  157.9324 C.3     1  UNL1        0.1149
@<TRIPOS>BOND
     1    27    28    1
     2    28    29    2
     3    28    30   am
     4    30    31    1
     5    31    32    1
     6    32    33    1
     7    33    34   am
     8    34    35    2
     9    34    21    1
    10    21    22   ar
    11    22    23   ar
    12    23    24   ar
    13    24    25   ar
    14    25     1    1
    15     1     2   ar
    16     2     3   ar
    17     3     4   ar
    18     4     5   ar
    19     5     6   ar
    20     6     7   ar
    21     7     8   ar
    22     8    11    1
    23    11    12   ar
    24    12    13   ar
    25    13    14   ar
    26    14    15   ar
    27    15    16   ar
    28    16    17   ar
    29    17    18   ar
    30    18    19   ar
    31    19    20   ar
    32     8     9   ar
    33     9    10   ar
    34    25    26   ar
    35    33    36    1
    36    36    37    1
    37    37    30    1
    38    26    21   ar
    39    10     1   ar
    40    10     5   ar
    41    20    11   ar
    42    19    14   ar
@<TRIPOS>MOLECULE
*****
 37 42 0 0 0
SMALL
GASTEIGER

@<TRIPOS>ATOM
      1 C         141.6998  140.9758  167.0073 C.ar    1  UNL1        0.0844
      2 N         141.9794  140.9029  168.4791 N.ar    1  UNL1       -0.2240
      3 C         143.0528  141.7600  169.0819 C.ar    1  UNL1        0.1988
      4 N         143.8465  142.6898  168.2128 N.ar    1  UNL1       -0.2240
      5 C         143.5668  142.7627  166.7409 C.ar    1  UNL1        0.0845
      6 C         144.3605  143.6926  165.8718 C.ar    1  UNL1        0.0192
      7 C         144.0809  143.7654  164.3999 C.ar    1  UNL1        0.0016
      8 C         143.0075  142.9083  163.7971 C.ar    1  UNL1        0.0016
      9 C         142.2138  141.9785  164.6662 C.ar    1  UNL1        0.0030
     10 C         142.4935  141.9056  166.1382 C.ar    1  UNL1        0.0354
     11 C         142.7278  142.9812  162.3252 C.ar    1  UNL1        0.0192
     12 C         143.2432  141.9103  161.4099 C.ar    1  UNL1        0.0988
     13 N         142.9635  141.9832  159.9381 N.ar    1  UNL1       -0.2438
     14 C         142.1685  143.1269  159.3814 C.ar    1  UNL1        0.0813
     15 C         141.8888  143.1997  157.9095 C.ar    1  UNL1        0.0191
     16 C         141.0938  144.3434  157.3529 C.ar    1  UNL1        0.0015
     17 C         140.5785  145.4143  158.2681 C.ar    1  UNL1        0.0001
     18 C         140.8581  145.3414  159.7399 C.ar    1  UNL1        0.0015
     19 C         141.6531  144.1977  160.2966 C.ar    1  UNL1        0.0177
     20 C         141.9328  144.1249  161.7686 C.ar    1  UNL1        0.0030
     21 C         139.7224  138.7110  164.4167 C.ar    1  UNL1        0.0536
     22 C         138.4796  138.4046  165.1988 C.ar    1  UNL1        0.0045
     23 C         138.3102  138.9553  166.5837 C.ar    1  UNL1        0.0002
     24 C         139.3836  139.8124  167.1865 C.ar    1  UNL1        0.0015
     25 C         140.6264  140.1187  166.4044 C.ar    1  UNL1        0.0179
     26 C         140.7958  139.5680  165.0195 C.ar    1  UNL1        0.0060
     27 C         138.6891  140.9920  156.8848 C.3     1  UNL1        0.0948
     28 C         138.5197  141.5426  158.2698 C.2     1  UNL1        0.2262
     29 O         138.0072  142.9390  158.4642 O.2     1  UNL1       -0.2749
     30 N         138.8627  140.6971  159.4602 N.am    1  UNL1       -0.2760
     31 C         138.6933  141.2478  160.8452 C.3     1  UNL1        0.1149
     32 C         139.0363  140.4022  162.0357 C.3     1  UNL1        0.1152
     33 N         139.5488  139.0059  161.8413 N.am    1  UNL1       -0.2726
     34 C         139.8919  138.1603  163.0317 C.2     1  UNL1        0.2491
     35 O         140.4043  136.7640  162.8373 O.2     1  UNL1       -0.2699
     36 C         139.7182  138.4552  160.4563 C.3     1  UNL1        0.1152
     37 C         139.3752  139.3008  159.2658 C.3     1  UNL1        0.1149
@<TRIPOS>BOND
     1    27    28    1
     2    28    29    2
     3    28    30   am
     4    30    31    1
     5    31    32    1
     6    32    33    1
     7    33    34   am
     8    34    35    2
     9    34    21    1
    10    21    22   ar
    11    22    23   ar
    12    23    24   ar
    13    24    25   ar
    14    25     1    1
    15     1     2   ar
    16     2     3   ar
    17     3     4   ar
    18     4     5   ar
    19     5     6   ar
    20     6     7   ar
    21     7     8   ar
    22     8    11    1
    23    11    12   ar
    24    12    13   ar
    25    13    14   ar
    26    14    15   ar
    27    15    16   ar
    28    16    17   ar
    29    17    18   ar
    30    18    19   ar
    31    19    20   ar
    32     8     9   ar
    33     9    10   ar
    34    25    26   ar
    35    33    36    1
    36    36    37    1
    37    37    30    1
    38    26    21   ar
    39    10     1   ar
    40    10     5   ar
    41    20    11   ar
    42    19    14   ar
@<TRIPOS>MOLECULE
*****
 37 42 0 0 0
SMALL
GASTEIGER

@<TRIPOS>ATOM
      1 C         141.4126  141.0854  167.1682 C.ar    1  UNL1        0.0844
      2 N         141.3312  141.2620  168.6555 N.ar    1  UNL1       -0.2240
      3 C         140.2265  140.6058  169.4293 C.ar    1  UNL1        0.1988
      4 N         139.2030  139.7730  168.7159 N.ar    1  UNL1       -0.2240
      5 C         139.2844  139.5964  167.2286 C.ar    1  UNL1        0.0845
      6 C         138.2610  138.7636  166.5151 C.ar    1  UNL1        0.0192
      7 C         138.3424  138.5869  165.0278 C.ar    1  UNL1        0.0016
      8 C         139.4472  139.2431  164.2539 C.ar    1  UNL1        0.0016
      9 C         140.4706  140.0759  164.9673 C.ar    1  UNL1        0.0030
     10 C         140.3892  140.2526  166.4547 C.ar    1  UNL1        0.0354
     11 C         139.5286  139.0665  162.7666 C.ar    1  UNL1        0.0192
     12 C         138.3138  139.2946  161.9166 C.ar    1  UNL1        0.0988
     13 N         138.3952  139.1179  160.4293 N.ar    1  UNL1       -0.2438
     14 C         139.6912  138.7132  159.7919 C.ar    1  UNL1        0.0813
     15 C         139.7726  138.5366  158.3045 C.ar    1  UNL1        0.0191
     16 C         141.0687  138.1318  157.6671 C.ar    1  UNL1        0.0015
     17 C         142.2834  137.9037  158.5170 C.ar    1  UNL1        0.0001
     18 C         142.2021  138.0803  160.0043 C.ar    1  UNL1        0.0015
     19 C         140.9060  138.4851  160.6417 C.ar    1  UNL1        0.0177
     20 C         140.8247  138.6617  162.1291 C.ar    1  UNL1        0.0030
     21 C         143.8262  142.0614  164.1729 C.ar    1  UNL1        0.0536
     22 C         144.7270  143.0539  164.8465 C.ar    1  UNL1        0.0045
     23 C         144.5229  143.3902  166.2940 C.ar    1  UNL1        0.0002
     24 C         143.4181  142.7340  167.0679 C.ar    1  UNL1        0.0015
     25 C         142.5174  141.7416  166.3943 C.ar    1  UNL1        0.0179
     26 C         142.7215  141.4053  164.9468 C.ar    1  UNL1        0.0060
     27 C         139.7251  142.0611  157.3773 C.3     1  UNL1        0.0948
     28 C         139.5211  142.3974  158.8248 C.2     1  UNL1        0.2262
     29 O         138.1897  142.9017  159.2971 O.2     1  UNL1       -0.2749
     30 N         140.6484  142.2293  159.7999 N.am    1  UNL1       -0.2760
     31 C         140.4443  142.5656  161.2474 C.3     1  UNL1        0.1149
     32 C         141.5716  142.3975  162.2226 C.3     1  UNL1        0.1152
     33 N         142.9030  141.8931  161.7502 N.am    1  UNL1       -0.2726
     34 C         144.0303  141.7251  162.7254 C.2     1  UNL1        0.2491
     35 O         145.3617  141.2207  162.2530 O.2     1  UNL1       -0.2699
     36 C         143.1070  141.5569  160.3027 C.3     1  UNL1        0.1152
     37 C         141.9797  141.7249  159.3276 C.3     1  UNL1        0.1149
@<TRIPOS>BOND
     1    27    28    1
     2    28    29    2
     3    28    30   am
     4    30    31    1
     5    31    32    1
     6    32    33    1
     7    33    34   am
     8    34    35    2
     9    34    21    1
    10    21    22   ar
    11    22    23   ar
    12    23    24   ar
    13    24    25   ar
    14    25     1    1
    15     1     2   ar
    16     2     3   ar
    17     3     4   ar
    18     4     5   ar
    19     5     6   ar
    20     6     7   ar
    21     7     8   ar
    22     8    11    1
    23    11    12   ar
    24    12    13   ar
    25    13    14   ar
    26    14    15   ar
    27    15    16   ar
    28    16    17   ar
    29    17    18   ar
    30    18    19   ar
    31    19    20   ar
    32     8     9   ar
    33     9    10   ar
    34    25    26   ar
    35    33    36    1
    36    36    37    1
    37    37    30    1
    38    26    21   ar
    39    10     1   ar
    40    10     5   ar
    41    20    11   ar
    42    19    14   ar
