@<TRIPOS>MOLECULE
*****
 26 29 0 0 0
SMALL
GASTEIGER

@<TRIPOS>ATOM
      1 C         140.3269  142.7473  165.9377 C.3     1  UNL1        0.0339
      2 C         141.4733  142.6257  164.9780 C.ar    1  UNL1        0.0095
      3 C         142.6394  141.7427  165.3106 C.ar    1  UNL1        0.0730
      4 C         143.7858  141.6211  164.3509 C.ar    1  UNL1        0.1531
      5 F         144.9519  140.7380  164.6835 F       1  UNL1       -0.2029
      6 C         143.7661  142.3824  163.0586 C.ar    1  UNL1        0.0323
      7 C         142.6000  143.2654  162.7260 C.ar    1  UNL1        0.0180
      8 C         142.5803  144.0267  161.4338 C.ar    1  UNL1        0.0064
      9 C         141.4142  144.9097  161.1012 C.ar    1  UNL1        0.0608
     10 C         140.2678  145.0313  162.0609 C.ar    1  UNL1        0.2609
     11 O         139.1017  145.9143  161.7283 O.2     1  UNL1       -0.2670
     12 N         140.2875  144.2700  163.3532 N.ar    1  UNL1       -0.2976
     13 C         141.4536  143.3870  163.6857 C.ar    1  UNL1        0.0597
     14 N         142.6591  140.9813  166.6029 N.pl3   1  UNL1       -0.3059
     15 C         142.6113  139.4891  166.7479 C.3     1  UNL1        0.0909
     16 C         142.6528  139.1641  168.2117 C.3     1  UNL1        0.0244
     17 C         142.7262  140.4555  168.9714 C.3     1  UNL1        0.0356
     18 C         142.7301  141.5786  167.9770 C.3     1  UNL1        0.0922
     19 C         142.7853  140.5986  170.4633 C.3     1  UNL1        0.0525
     20 C         141.8843  141.5751  171.1594 C.3     1  UNL1        0.0169
     21 N         143.7455  139.7651  171.2593 N.3     1  UNL1       -0.3221
     22 H         144.2747  139.1617  170.6298 H       1  UNL1        0.1188
     23 H         143.2271  139.1913  171.9244 H       1  UNL1        0.1188
     24 C         139.1412  144.3916  164.3129 C.3     1  UNL1        0.0885
     25 C         138.5410  144.9900  165.5504 C.3     1  UNL1        0.0246
     26 C         137.7558  144.0039  164.7375 C.3     1  UNL1        0.0246
@<TRIPOS>BOND
     1     1     2    1
     2     2     3   ar
     3     3    14    1
     4    14    15    1
     5    15    16    1
     6    17    16    1
     7    17    19    1
     8    19    20    1
     9    19    21    1
    10    17    18    1
    11     3     4   ar
    12     4     5    1
    13     4     6   ar
    14     6     7   ar
    15     7     8   ar
    16     8     9   ar
    17     9    10   ar
    18    10    11    2
    19    10    12   ar
    20    12    24    1
    21    24    25    1
    22    25    26    1
    23    12    13   ar
    24    13     2   ar
    25    18    14    1
    26    13     7   ar
    27    26    24    1
    28    21    22    1
    29    21    23    1
@<TRIPOS>MOLECULE
*****
 26 29 0 0 0
SMALL
GASTEIGER

@<TRIPOS>ATOM
      1 C         139.5881  142.1740  164.9551 C.3     1  UNL1        0.0339
      2 C         139.3212  140.8173  164.3736 C.ar    1  UNL1        0.0095
      3 C         139.4785  139.5923  165.2247 C.ar    1  UNL1        0.0730
      4 C         139.2116  138.2356  164.6431 C.ar    1  UNL1        0.1531
      5 F         139.3689  137.0105  165.4943 F       1  UNL1       -0.2029
      6 C         138.7875  138.1040  163.2104 C.ar    1  UNL1        0.0323
      7 C         138.6302  139.3291  162.3592 C.ar    1  UNL1        0.0180
      8 C         138.2061  139.1975  160.9264 C.ar    1  UNL1        0.0064
      9 C         138.0488  140.4225  160.0753 C.ar    1  UNL1        0.0608
     10 C         138.3157  141.7792  160.6569 C.ar    1  UNL1        0.2609
     11 O         138.1584  143.0043  159.8057 O.2     1  UNL1       -0.2670
     12 N         138.7398  141.9108  162.0896 N.ar    1  UNL1       -0.2976
     13 C         138.8971  140.6857  162.9407 C.ar    1  UNL1        0.0597
     14 N         139.9026  139.7238  166.6575 N.pl3   1  UNL1       -0.3059
     15 C         138.9883  139.8619  167.8386 C.3     1  UNL1        0.0909
     16 C         139.8362  139.9638  169.0717 C.3     1  UNL1        0.0244
     17 C         141.2746  139.8888  168.6528 C.3     1  UNL1        0.0356
     18 C         141.3156  139.7405  167.1606 C.3     1  UNL1        0.0922
     19 C         142.4632  139.9511  169.5657 C.3     1  UNL1        0.0525
     20 C         143.2150  141.2385  169.7311 C.3     1  UNL1        0.0169
     21 N         142.8999  138.7261  170.3131 N.3     1  UNL1       -0.3221
     22 H         142.2806  137.9488  170.0834 H       1  UNL1        0.1188
     23 H         142.8601  138.9075  171.3160 H       1  UNL1        0.1188
     24 C         139.0067  143.2674  162.6712 C.3     1  UNL1        0.0885
     25 C         139.9488  144.4034  162.9394 C.3     1  UNL1        0.0246
     26 C         138.5268  144.4813  163.4103 C.3     1  UNL1        0.0246
@<TRIPOS>BOND
     1     1     2    1
     2     2     3   ar
     3     3    14    1
     4    14    15    1
     5    15    16    1
     6    17    16    1
     7    17    19    1
     8    19    20    1
     9    19    21    1
    10    17    18    1
    11     3     4   ar
    12     4     5    1
    13     4     6   ar
    14     6     7   ar
    15     7     8   ar
    16     8     9   ar
    17     9    10   ar
    18    10    11    2
    19    10    12   ar
    20    12    24    1
    21    24    25    1
    22    25    26    1
    23    12    13   ar
    24    13     2   ar
    25    18    14    1
    26    13     7   ar
    27    26    24    1
    28    21    22    1
    29    21    23    1
@<TRIPOS>MOLECULE
*****
 26 29 0 0 0
SMALL
GASTEIGER

@<TRIPOS>ATOM
      1 C         142.7324  140.2959  165.7579 C.3     1  UNL1        0.0339
      2 C         141.4552  139.8021  165.1456 C.ar    1  UNL1        0.0095
      3 C         140.1626  139.9388  165.8943 C.ar    1  UNL1        0.0730
      4 C         138.8854  139.4449  165.2821 C.ar    1  UNL1        0.1531
      5 F         137.5928  139.5817  166.0308 F       1  UNL1       -0.2029
      6 C         138.9008  138.8144  163.9211 C.ar    1  UNL1        0.0323
      7 C         140.1934  138.6777  163.1724 C.ar    1  UNL1        0.0180
      8 C         140.2087  138.0472  161.8115 C.ar    1  UNL1        0.0064
      9 C         141.5013  137.9105  161.0628 C.ar    1  UNL1        0.0608
     10 C         142.7785  138.4043  161.6751 C.ar    1  UNL1        0.2609
     11 O         144.0711  138.2676  160.9263 O.2     1  UNL1       -0.2670
     12 N         142.7631  139.0348  163.0360 N.ar    1  UNL1       -0.2976
     13 C         141.4706  139.1715  163.7846 C.ar    1  UNL1        0.0597
     14 N         140.1472  140.5693  167.2553 N.pl3   1  UNL1       -0.3059
     15 C         139.4765  140.0141  168.4767 C.3     1  UNL1        0.0909
     16 C         139.7146  140.9674  169.6101 C.3     1  UNL1        0.0244
     17 C         140.5325  142.1119  169.0891 C.3     1  UNL1        0.0356
     18 C         140.7999  141.8658  167.6337 C.3     1  UNL1        0.0922
     19 C         141.0007  143.2947  169.8839 C.3     1  UNL1        0.0525
     20 C         142.4058  143.3379  170.4072 C.3     1  UNL1        0.0169
     21 N         140.0639  144.4343  170.1553 N.3     1  UNL1       -0.3221
     22 H         139.1582  144.2389  169.7289 H       1  UNL1        0.1188
     23 H         140.4482  145.2921  169.7591 H       1  UNL1        0.1188
     24 C         144.0404  139.5287  163.6482 C.3     1  UNL1        0.0885
     25 C         145.0826  140.5974  163.7945 C.3     1  UNL1        0.0246
     26 C         145.2102  139.3152  164.5625 C.3     1  UNL1        0.0246
@<TRIPOS>BOND
     1     1     2    1
     2     2     3   ar
     3     3    14    1
     4    14    15    1
     5    15    16    1
     6    17    16    1
     7    17    19    1
     8    19    20    1
     9    19    21    1
    10    17    18    1
    11     3     4   ar
    12     4     5    1
    13     4     6   ar
    14     6     7   ar
    15     7     8   ar
    16     8     9   ar
    17     9    10   ar
    18    10    11    2
    19    10    12   ar
    20    12    24    1
    21    24    25    1
    22    25    26    1
    23    12    13   ar
    24    13     2   ar
    25    18    14    1
    26    13     7   ar
    27    26    24    1
    28    21    22    1
    29    21    23    1
@<TRIPOS>MOLECULE
*****
 26 29 0 0 0
SMALL
GASTEIGER

@<TRIPOS>ATOM
      1 C         141.7406  142.9213  165.1432 C.3     1  UNL1        0.0339
      2 C         140.5478  142.0427  164.9078 C.ar    1  UNL1        0.0095
      3 C         140.1906  140.9803  165.9045 C.ar    1  UNL1        0.0730
      4 C         138.9978  140.1017  165.6691 C.ar    1  UNL1        0.1531
      5 F         138.6405  139.0392  166.6659 F       1  UNL1       -0.2029
      6 C         138.1623  140.2856  164.4371 C.ar    1  UNL1        0.0323
      7 C         138.5195  141.3481  163.4403 C.ar    1  UNL1        0.0180
      8 C         137.6840  141.5320  162.2082 C.ar    1  UNL1        0.0064
      9 C         138.0413  142.5945  161.2115 C.ar    1  UNL1        0.0608
     10 C         139.2341  143.4731  161.4469 C.ar    1  UNL1        0.2609
     11 O         139.5914  144.5356  160.4501 O.2     1  UNL1       -0.2670
     12 N         140.0696  143.2891  162.6789 N.ar    1  UNL1       -0.2976
     13 C         139.7123  142.2267  163.6756 C.ar    1  UNL1        0.0597
     14 N         141.0261  140.7963  167.1367 N.pl3   1  UNL1       -0.3059
     15 C         141.9906  139.6755  167.3887 C.3     1  UNL1        0.0909
     16 C         142.6044  139.8874  168.7409 C.3     1  UNL1        0.0244
     17 C         142.0192  141.1392  169.3246 C.3     1  UNL1        0.0356
     18 C         141.0437  141.7010  168.3331 C.3     1  UNL1        0.0922
     19 C         142.3511  141.7262  170.6644 C.3     1  UNL1        0.0525
     20 C         142.8450  143.1391  170.7627 C.3     1  UNL1        0.0169
     21 N         142.1892  140.9002  171.9060 N.3     1  UNL1       -0.3221
     22 H         141.8468  139.9727  171.6551 H       1  UNL1        0.1188
     23 H         141.5208  141.3520  172.5302 H       1  UNL1        0.1188
     24 C         141.2624  144.1677  162.9143 C.3     1  UNL1        0.0885
     25 C         142.7159  144.4697  162.6997 C.3     1  UNL1        0.0246
     26 C         141.8748  145.3874  163.5366 C.3     1  UNL1        0.0246
@<TRIPOS>BOND
     1     1     2    1
     2     2     3   ar
     3     3    14    1
     4    14    15    1
     5    15    16    1
     6    17    16    1
     7    17    19    1
     8    19    20    1
     9    19    21    1
    10    17    18    1
    11     3     4   ar
    12     4     5    1
    13     4     6   ar
    14     6     7   ar
    15     7     8   ar
    16     8     9   ar
    17     9    10   ar
    18    10    11    2
    19    10    12   ar
    20    12    24    1
    21    24    25    1
    22    25    26    1
    23    12    13   ar
    24    13     2   ar
    25    18    14    1
    26    13     7   ar
    27    26    24    1
    28    21    22    1
    29    21    23    1
@<TRIPOS>MOLECULE
*****
 26 29 0 0 0
SMALL
GASTEIGER

@<TRIPOS>ATOM
      1 C         142.6452  140.4604  164.7245 C.3     1  UNL1        0.0339
      2 C         141.2954  139.8178  164.8479 C.ar    1  UNL1        0.0095
      3 C         140.5984  139.7861  166.1757 C.ar    1  UNL1        0.0730
      4 C         139.2486  139.1435  166.2990 C.ar    1  UNL1        0.1531
      5 F         138.5516  139.1118  167.6269 F       1  UNL1       -0.2029
      6 C         138.5959  138.5326  165.0946 C.ar    1  UNL1        0.0323
      7 C         139.2930  138.5643  163.7667 C.ar    1  UNL1        0.0180
      8 C         138.6403  137.9533  162.5623 C.ar    1  UNL1        0.0064
      9 C         139.3373  137.9850  161.2345 C.ar    1  UNL1        0.0608
     10 C         140.6871  138.6276  161.1111 C.ar    1  UNL1        0.2609
     11 O         141.3841  138.6593  159.7833 O.2     1  UNL1       -0.2670
     12 N         141.3398  139.2386  162.3156 N.ar    1  UNL1       -0.2976
     13 C         140.6427  139.2069  163.6434 C.ar    1  UNL1        0.0597
     14 N         141.2511  140.3971  167.3802 N.pl3   1  UNL1       -0.3059
     15 C         142.3585  139.7873  168.1874 C.3     1  UNL1        0.0909
     16 C         142.7027  140.7384  169.2950 C.3     1  UNL1        0.0244
     17 C         141.8080  141.9361  169.1724 C.3     1  UNL1        0.0356
     18 C         140.9108  141.7252  167.9888 C.3     1  UNL1        0.0922
     19 C         141.8101  143.1344  170.0747 C.3     1  UNL1        0.0525
     20 C         140.6570  144.0934  170.0506 C.3     1  UNL1        0.0169
     21 N         142.9654  143.3736  171.0011 N.3     1  UNL1       -0.3221
     22 H         143.6533  142.6293  170.8860 H       1  UNL1        0.1188
     23 H         142.6320  143.3824  171.9650 H       1  UNL1        0.1188
     24 C         142.6895  139.8812  162.1922 C.3     1  UNL1        0.0885
     25 C         143.5313  141.1038  161.9769 C.3     1  UNL1        0.0246
     26 C         144.1855  139.7716  162.1939 C.3     1  UNL1        0.0246
@<TRIPOS>BOND
     1     1     2    1
     2     2     3   ar
     3     3    14    1
     4    14    15    1
     5    15    16    1
     6    17    16    1
     7    17    19    1
     8    19    20    1
     9    19    21    1
    10    17    18    1
    11     3     4   ar
    12     4     5    1
    13     4     6   ar
    14     6     7   ar
    15     7     8   ar
    16     8     9   ar
    17     9    10   ar
    18    10    11    2
    19    10    12   ar
    20    12    24    1
    21    24    25    1
    22    25    26    1
    23    12    13   ar
    24    13     2   ar
    25    18    14    1
    26    13     7   ar
    27    26    24    1
    28    21    22    1
    29    21    23    1
@<TRIPOS>MOLECULE
*****
 26 29 0 0 0
SMALL
GASTEIGER

@<TRIPOS>ATOM
      1 C         141.5240  140.8691  164.6096 C.3     1  UNL1        0.0339
      2 C         140.6941  140.4893  165.7999 C.ar    1  UNL1        0.0095
      3 C         139.4269  139.7089  165.6125 C.ar    1  UNL1        0.0730
      4 C         138.5969  139.3292  166.8028 C.ar    1  UNL1        0.1531
      5 F         137.3297  138.5487  166.6154 F       1  UNL1       -0.2029
      6 C         139.0341  139.7298  168.1806 C.ar    1  UNL1        0.0323
      7 C         140.3013  140.5103  168.3681 C.ar    1  UNL1        0.0180
      8 C         140.7385  140.9110  169.7458 C.ar    1  UNL1        0.0064
      9 C         142.0057  141.6914  169.9333 C.ar    1  UNL1        0.0608
     10 C         142.8357  142.0711  168.7429 C.ar    1  UNL1        0.2609
     11 O         144.1029  142.8516  168.9304 O.2     1  UNL1       -0.2670
     12 N         142.3985  141.6704  167.3651 N.ar    1  UNL1       -0.2976
     13 C         141.1313  140.8900  167.1777 C.ar    1  UNL1        0.0597
     14 N         138.9896  139.3082  164.2347 N.pl3   1  UNL1       -0.3059
     15 C         139.0427  137.9234  163.6607 C.3     1  UNL1        0.0909
     16 C         138.5084  137.9813  162.2602 C.3     1  UNL1        0.0244
     17 C         138.1251  139.4020  161.9687 C.3     1  UNL1        0.0356
     18 C         138.4225  140.2221  163.1891 C.3     1  UNL1        0.0922
     19 C         137.5460  139.9128  160.6828 C.3     1  UNL1        0.0525
     20 C         138.3114  140.9041  159.8571 C.3     1  UNL1        0.0169
     21 N         136.2016  139.4324  160.2225 N.3     1  UNL1       -0.3221
     22 H         135.8280  138.7676  160.8997 H       1  UNL1        0.1188
     23 H         136.2959  138.9766  159.3149 H       1  UNL1        0.1188
     24 C         143.2285  142.0502  166.1748 C.3     1  UNL1        0.0885
     25 C         144.1225  141.6578  165.0361 C.3     1  UNL1        0.0246
     26 C         143.7720  143.1003  165.2518 C.3     1  UNL1        0.0246
@<TRIPOS>BOND
     1     1     2    1
     2     2     3   ar
     3     3    14    1
     4    14    15    1
     5    15    16    1
     6    17    16    1
     7    17    19    1
     8    19    20    1
     9    19    21    1
    10    17    18    1
    11     3     4   ar
    12     4     5    1
    13     4     6   ar
    14     6     7   ar
    15     7     8   ar
    16     8     9   ar
    17     9    10   ar
    18    10    11    2
    19    10    12   ar
    20    12    24    1
    21    24    25    1
    22    25    26    1
    23    12    13   ar
    24    13     2   ar
    25    18    14    1
    26    13     7   ar
    27    26    24    1
    28    21    22    1
    29    21    23    1
@<TRIPOS>MOLECULE
*****
 26 29 0 0 0
SMALL
GASTEIGER

@<TRIPOS>ATOM
      1 C         141.5878  139.8538  165.9951 C.3     1  UNL1        0.0339
      2 C         142.6263  140.6906  165.3086 C.ar    1  UNL1        0.0095
      3 C         143.2167  141.8777  166.0100 C.ar    1  UNL1        0.0730
      4 C         144.2552  142.7145  165.3235 C.ar    1  UNL1        0.1531
      5 F         144.8455  143.9018  166.0250 F       1  UNL1       -0.2029
      6 C         144.7033  142.3641  163.9356 C.ar    1  UNL1        0.0323
      7 C         144.1130  141.1769  163.2341 C.ar    1  UNL1        0.0180
      8 C         144.5611  140.8265  161.8462 C.ar    1  UNL1        0.0064
      9 C         143.9708  139.6393  161.1448 C.ar    1  UNL1        0.0608
     10 C         142.9323  138.8025  161.8313 C.ar    1  UNL1        0.2609
     11 O         142.3419  137.6153  161.1298 O.2     1  UNL1       -0.2670
     12 N         142.4841  139.1529  163.2192 N.ar    1  UNL1       -0.2976
     13 C         143.0745  140.3401  163.9206 C.ar    1  UNL1        0.0597
     14 N         142.7685  142.2282  167.3980 N.pl3   1  UNL1       -0.3059
     15 C         143.6241  142.2169  168.6300 C.3     1  UNL1        0.0909
     16 C         142.7704  142.6332  169.7910 C.3     1  UNL1        0.0244
     17 C         141.3872  142.9018  169.2765 C.3     1  UNL1        0.0356
     18 C         141.3860  142.6515  167.7975 C.3     1  UNL1        0.0922
     19 C         140.2116  143.3432  170.0970 C.3     1  UNL1        0.0525
     20 C         139.2920  142.3227  170.6994 C.3     1  UNL1        0.0169
     21 N         139.9556  144.8050  170.3150 N.3     1  UNL1       -0.3221
     22 H         140.6732  145.3507  169.8377 H       1  UNL1        0.1188
     23 H         139.9813  145.0094  171.3140 H       1  UNL1        0.1188
     24 C         141.4456  138.3161  163.9057 C.3     1  UNL1        0.0885
     25 C         140.0120  138.0637  164.2675 C.3     1  UNL1        0.0246
     26 C         141.0805  137.1193  164.7329 C.3     1  UNL1        0.0246
@<TRIPOS>BOND
     1     1     2    1
     2     2     3   ar
     3     3    14    1
     4    14    15    1
     5    15    16    1
     6    17    16    1
     7    17    19    1
     8    19    20    1
     9    19    21    1
    10    17    18    1
    11     3     4   ar
    12     4     5    1
    13     4     6   ar
    14     6     7   ar
    15     7     8   ar
    16     8     9   ar
    17     9    10   ar
    18    10    11    2
    19    10    12   ar
    20    12    24    1
    21    24    25    1
    22    25    26    1
    23    12    13   ar
    24    13     2   ar
    25    18    14    1
    26    13     7   ar
    27    26    24    1
    28    21    22    1
    29    21    23    1
@<TRIPOS>MOLECULE
*****
 26 29 0 0 0
SMALL
GASTEIGER

@<TRIPOS>ATOM
      1 C         140.9675  142.6271  164.9975 C.3     1  UNL1        0.0339
      2 C         141.6257  141.4022  164.4351 C.ar    1  UNL1        0.0095
      3 C         141.6125  140.1196  165.2128 C.ar    1  UNL1        0.0730
      4 C         142.2706  138.8946  164.6505 C.ar    1  UNL1        0.1531
      5 F         142.2574  137.6121  165.4283 F       1  UNL1       -0.2029
      6 C         142.9420  138.9522  163.3104 C.ar    1  UNL1        0.0323
      7 C         142.9552  140.2348  162.5326 C.ar    1  UNL1        0.0180
      8 C         143.6266  140.2923  161.1925 C.ar    1  UNL1        0.0064
      9 C         143.6398  141.5748  160.4147 C.ar    1  UNL1        0.0608
     10 C         142.9816  142.7998  160.9771 C.ar    1  UNL1        0.2609
     11 O         142.9949  144.0824  160.1993 O.2     1  UNL1       -0.2670
     12 N         142.3103  142.7423  162.3172 N.ar    1  UNL1       -0.2976
     13 C         142.2971  141.4597  163.0949 C.ar    1  UNL1        0.0597
     14 N         140.9411  140.0620  166.5530 N.pl3   1  UNL1       -0.3059
     15 C         139.4693  139.9049  166.7958 C.3     1  UNL1        0.0909
     16 C         139.2423  139.8972  168.2785 C.3     1  UNL1        0.0244
     17 C         140.5738  140.0496  168.9521 C.3     1  UNL1        0.0356
     18 C         141.6238  140.1515  167.8856 C.3     1  UNL1        0.0922
     19 C         140.8134  140.0927  170.4322 C.3     1  UNL1        0.0525
     20 C         142.0089  140.8159  170.9778 C.3     1  UNL1        0.0169
     21 N         139.8574  139.4124  171.3668 N.3     1  UNL1       -0.3221
     22 H         139.1095  138.9746  170.8288 H       1  UNL1        0.1188
     23 H         139.4588  140.1005  172.0056 H       1  UNL1        0.1188
     24 C         141.6521  143.9672  162.8796 C.3     1  UNL1        0.0885
     25 C         141.7309  145.2312  163.6835 C.3     1  UNL1        0.0246
     26 C         140.4334  144.8250  163.0497 C.3     1  UNL1        0.0246
@<TRIPOS>BOND
     1     1     2    1
     2     2     3   ar
     3     3    14    1
     4    14    15    1
     5    15    16    1
     6    17    16    1
     7    17    19    1
     8    19    20    1
     9    19    21    1
    10    17    18    1
    11     3     4   ar
    12     4     5    1
    13     4     6   ar
    14     6     7   ar
    15     7     8   ar
    16     8     9   ar
    17     9    10   ar
    18    10    11    2
    19    10    12   ar
    20    12    24    1
    21    24    25    1
    22    25    26    1
    23    12    13   ar
    24    13     2   ar
    25    18    14    1
    26    13     7   ar
    27    26    24    1
    28    21    22    1
    29    21    23    1
@<TRIPOS>MOLECULE
*****
 26 29 0 0 0
SMALL
GASTEIGER

@<TRIPOS>ATOM
      1 C         142.9177  141.4563  165.2189 C.3     1  UNL1        0.0339
      2 C         141.8109  142.1521  164.4834 C.ar    1  UNL1        0.0095
      3 C         140.4925  142.3860  165.1593 C.ar    1  UNL1        0.0730
      4 C         139.3857  143.0818  164.4238 C.ar    1  UNL1        0.1531
      5 F         138.0671  143.3157  165.0997 F       1  UNL1       -0.2029
      6 C         139.5973  143.5435  163.0124 C.ar    1  UNL1        0.0323
      7 C         140.9159  143.3096  162.3365 C.ar    1  UNL1        0.0180
      8 C         141.1276  143.7714  160.9252 C.ar    1  UNL1        0.0064
      9 C         142.4460  143.5374  160.2493 C.ar    1  UNL1        0.0608
     10 C         143.5528  142.8417  160.9848 C.ar    1  UNL1        0.2609
     11 O         144.8714  142.6077  160.3089 O.2     1  UNL1       -0.2670
     12 N         143.3412  142.3799  162.3962 N.ar    1  UNL1       -0.2976
     13 C         142.0227  142.6138  163.0720 C.ar    1  UNL1        0.0597
     14 N         140.2807  141.9242  166.5707 N.pl3   1  UNL1       -0.3059
     15 C         139.7306  140.5932  166.9897 C.3     1  UNL1        0.0909
     16 C         139.6919  140.5588  168.4888 C.3     1  UNL1        0.0244
     17 C         140.2180  141.8687  168.9963 C.3     1  UNL1        0.0356
     18 C         140.5819  142.7126  167.8107 C.3     1  UNL1        0.0922
     19 C         140.3559  142.2650  170.4364 C.3     1  UNL1        0.0525
     20 C         141.4651  141.6931  171.2687 C.3     1  UNL1        0.0169
     21 N         139.3848  143.2332  171.0441 N.3     1  UNL1       -0.3221
     22 H         138.7030  143.5177  170.3408 H       1  UNL1        0.1188
     23 H         139.8884  144.0538  171.3809 H       1  UNL1        0.1188
     24 C         144.4480  141.6841  163.1316 C.3     1  UNL1        0.0885
     25 C         145.1091  140.4173  163.5877 C.3     1  UNL1        0.0246
     26 C         145.7039  141.7460  163.9495 C.3     1  UNL1        0.0246
@<TRIPOS>BOND
     1     1     2    1
     2     2     3   ar
     3     3    14    1
     4    14    15    1
     5    15    16    1
     6    17    16    1
     7    17    19    1
     8    19    20    1
     9    19    21    1
    10    17    18    1
    11     3     4   ar
    12     4     5    1
    13     4     6   ar
    14     6     7   ar
    15     7     8   ar
    16     8     9   ar
    17     9    10   ar
    18    10    11    2
    19    10    12   ar
    20    12    24    1
    21    24    25    1
    22    25    26    1
    23    12    13   ar
    24    13     2   ar
    25    18    14    1
    26    13     7   ar
    27    26    24    1
    28    21    22    1
    29    21    23    1
