@<TRIPOS>MOLECULE
*****
 41 45 0 0 0
SMALL
GASTEIGER

@<TRIPOS>ATOM
      1 C         139.6721  140.7921  164.5616 C.3     1  UNL1        0.0777
      2 C         138.9837  139.9322  166.9146 C.ar    1  UNL1        0.1351
      3 C         139.1642  139.9376  168.4037 C.ar    1  UNL1        0.0366
      4 C         140.2136  140.8082  169.0289 C.ar    1  UNL1        0.0030
      5 C         140.3941  140.8135  170.5180 C.ar    1  UNL1        0.0006
      6 C         141.4434  141.6841  171.1431 C.ar    1  UNL1        0.0067
      7 C         142.3123  142.5493  170.2792 C.ar    1  UNL1        0.0346
      8 BR        143.3618  143.4199  170.9044 Br      1  UNL1       -0.0490
      9 C         142.1319  142.5440  168.7901 C.ar    1  UNL1        0.0067
     10 C         141.0825  141.6734  168.1650 C.ar    1  UNL1        0.0004
     11 C         140.9020  141.6680  166.6758 C.ar    1  UNL1       -0.0009
     12 C         139.8526  140.7975  166.0507 C.ar    1  UNL1        0.0182
     13 C         137.3761  137.8957  167.0504 C.3     1  UNL1        0.2525
     14 O         137.9343  139.0616  166.2894 O.3     1  UNL1       -0.4717
     15 C         139.5309  142.0875  163.8185 C.ar    1  UNL1        0.0067
     16 C         138.3251  142.3325  162.9607 C.ar    1  UNL1        0.0984
     17 N         138.1840  143.6279  162.2177 N.ar    1  UNL1       -0.2079
     18 C         139.2487  144.6782  162.3325 C.ar    1  UNL1        0.2601
     19 C         140.4546  144.4332  163.1904 C.ar    1  UNL1        0.1913
     20 C         140.5957  143.1378  163.9334 C.ar    1  UNL1        0.0394
     21 O         139.1076  145.9736  161.5894 O.3     1  UNL1       -0.4541
     22 C         139.8916  146.2063  160.3321 C.3     1  UNL1        0.2543
     23 O         141.5193  145.4835  163.3052 O.3     1  UNL1       -0.4667
     24 C         142.9171  145.0960  163.6874 C.3     1  UNL1        0.2527
     25 C         139.6327  139.4914  163.8155 C.3     1  UNL1        0.1186
     26 O         138.1477  139.6286  163.6548 O.3     1  UNL1       -0.3819
     27 H         137.7948  140.1815  164.3694 H       1  UNL1        0.2107
     28 C         141.1177  139.3543  163.9763 C.ar    1  UNL1        0.0369
     29 C         141.6794  138.6119  165.1526 C.ar    1  UNL1        0.0010
     30 C         143.1644  138.4748  165.3133 C.ar    1  UNL1       -0.0000
     31 C         144.0878  139.0799  164.2978 C.ar    1  UNL1        0.0031
     32 C         143.5262  139.8222  163.1216 C.ar    1  UNL1        0.0375
     33 C         144.1837  140.5196  161.9678 C.ar    1  UNL1        0.0437
     34 C         143.1050  141.0879  161.0940 C.ar    1  UNL1        0.1796
     35 O         141.7808  140.7416  161.7077 O.2     1  UNL1       -0.4507
     36 C         142.0411  139.9594  162.9608 C.ar    1  UNL1        0.1436
     37 C         139.5933  138.1907  163.0695 C.3     1  UNL1        0.0492
     38 C         138.6180  137.9997  161.9460 C.3     1  UNL1        0.0750
     39 N         138.7669  138.7916  160.6808 N.3     1  UNL1       -0.2702
     40 C         137.7289  139.8073  160.3051 C.3     1  UNL1        0.0897
     41 C         139.9537  138.5678  159.7912 C.3     1  UNL1        0.0897
@<TRIPOS>BOND
     1    13    14    1
     2    14     2    1
     3     2     3   ar
     4     3     4   ar
     5     4     5   ar
     6     5     6   ar
     7     6     7   ar
     8     7     8    1
     9     7     9   ar
    10     9    10   ar
    11    10    11   ar
    12    11    12   ar
    13     1    12    1
    14     1    15    1
    15    15    16   ar
    16    16    17   ar
    17    17    18   ar
    18    18    21    1
    19    21    22    1
    20    18    19   ar
    21    19    23    1
    22    23    24    1
    23    19    20   ar
    24     1    25    1
    25    25    26    1
    26    25    37    1
    27    37    38    1
    28    38    39    1
    29    39    40    1
    30    39    41    1
    31    25    28    1
    32    28    29   ar
    33    29    30   ar
    34    30    31   ar
    35    31    32   ar
    36    32    33   ar
    37    33    34   ar
    38    34    35   ar
    39    35    36   ar
    40    12     2   ar
    41    20    15   ar
    42    36    28   ar
    43    10     4   ar
    44    36    32   ar
    45    26    27    1
@<TRIPOS>MOLECULE
*****
 41 45 0 0 0
SMALL
GASTEIGER

@<TRIPOS>ATOM
      1 C         141.9562  142.3981  162.5531 C.3     1  UNL1        0.0777
      2 C         143.6755  142.7234  164.4737 C.ar    1  UNL1        0.1351
      3 C         144.0053  142.7163  165.9369 C.ar    1  UNL1        0.0366
      4 C         142.9458  142.3766  166.9430 C.ar    1  UNL1        0.0030
      5 C         143.2757  142.3694  168.4062 C.ar    1  UNL1        0.0006
      6 C         142.2162  142.0298  169.4122 C.ar    1  UNL1        0.0067
      7 C         140.8268  141.6973  168.9549 C.ar    1  UNL1        0.0346
      8 BR        139.7673  141.3576  169.9610 Br      1  UNL1       -0.0490
      9 C         140.4969  141.7044  167.4917 C.ar    1  UNL1        0.0067
     10 C         141.5564  142.0441  166.4857 C.ar    1  UNL1        0.0004
     11 C         141.2266  142.0513  165.0224 C.ar    1  UNL1       -0.0009
     12 C         142.2861  142.3909  164.0164 C.ar    1  UNL1        0.0182
     13 C         145.6143  141.9829  162.9108 C.3     1  UNL1        0.2525
     14 O         144.7350  143.0631  163.4676 O.3     1  UNL1       -0.4717
     15 C         142.1992  141.1722  161.7235 C.ar    1  UNL1        0.0067
     16 C         142.8109  141.2986  160.3598 C.ar    1  UNL1        0.0984
     17 N         143.0538  140.0728  159.5302 N.ar    1  UNL1       -0.2079
     18 C         142.6851  138.7205  160.0644 C.ar    1  UNL1        0.2601
     19 C         142.0734  138.5940  161.4282 C.ar    1  UNL1        0.1913
     20 C         141.8304  139.8199  162.2577 C.ar    1  UNL1        0.0394
     21 O         142.9280  137.4946  159.2348 O.3     1  UNL1       -0.4541
     22 C         142.5158  137.4710  157.7928 C.3     1  UNL1        0.2543
     23 O         141.7046  137.2418  161.9623 O.3     1  UNL1       -0.4667
     24 C         140.9562  137.1254  163.2571 C.3     1  UNL1        0.2527
     25 C         141.3835  143.6311  161.9194 C.3     1  UNL1        0.1186
     26 O         142.7643  144.0778  161.5404 O.3     1  UNL1       -0.3819
     27 H         143.4095  143.6863  162.1499 H       1  UNL1        0.2107
     28 C         140.0026  143.1845  162.2984 C.ar    1  UNL1        0.0369
     29 C         139.3079  142.1284  161.4909 C.ar    1  UNL1        0.0010
     30 C         137.9270  141.6817  161.8699 C.ar    1  UNL1       -0.0000
     31 C         137.2408  142.2911  163.0564 C.ar    1  UNL1        0.0031
     32 C         137.9355  143.3471  163.8640 C.ar    1  UNL1        0.0375
     33 C         137.5136  144.1235  165.0760 C.ar    1  UNL1        0.0437
     34 C         138.6336  145.0501  165.4461 C.ar    1  UNL1        0.1796
     35 O         139.7479  144.8463  164.4628 O.2     1  UNL1       -0.4507
     36 C         139.3165  143.7938  163.4850 C.ar    1  UNL1        0.1436
     37 C         140.8107  144.8641  161.2858 C.3     1  UNL1        0.0492
     38 C         141.2941  145.3079  159.9369 C.3     1  UNL1        0.0750
     39 N         141.2597  144.3565  158.7776 N.3     1  UNL1       -0.2702
     40 C         142.5189  144.0477  158.0233 C.3     1  UNL1        0.0897
     41 C         139.9661  143.7142  158.3727 C.3     1  UNL1        0.0897
@<TRIPOS>BOND
     1    13    14    1
     2    14     2    1
     3     2     3   ar
     4     3     4   ar
     5     4     5   ar
     6     5     6   ar
     7     6     7   ar
     8     7     8    1
     9     7     9   ar
    10     9    10   ar
    11    10    11   ar
    12    11    12   ar
    13     1    12    1
    14     1    15    1
    15    15    16   ar
    16    16    17   ar
    17    17    18   ar
    18    18    21    1
    19    21    22    1
    20    18    19   ar
    21    19    23    1
    22    23    24    1
    23    19    20   ar
    24     1    25    1
    25    25    26    1
    26    25    37    1
    27    37    38    1
    28    38    39    1
    29    39    40    1
    30    39    41    1
    31    25    28    1
    32    28    29   ar
    33    29    30   ar
    34    30    31   ar
    35    31    32   ar
    36    32    33   ar
    37    33    34   ar
    38    34    35   ar
    39    35    36   ar
    40    12     2   ar
    41    20    15   ar
    42    36    28   ar
    43    10     4   ar
    44    36    32   ar
    45    26    27    1
@<TRIPOS>MOLECULE
*****
 41 45 0 0 0
SMALL
GASTEIGER

@<TRIPOS>ATOM
      1 C         140.4445  141.4380  162.8706 C.3     1  UNL1        0.0777
      2 C         139.6770  143.0912  164.7222 C.ar    1  UNL1        0.1351
      3 C         139.6864  143.5310  166.1562 C.ar    1  UNL1        0.0366
      4 C         140.4727  142.7575  167.1728 C.ar    1  UNL1        0.0030
      5 C         140.4821  143.1973  168.6068 C.ar    1  UNL1        0.0006
      6 C         141.2684  142.4238  169.6234 C.ar    1  UNL1        0.0067
      7 C         142.0452  141.2104  169.2059 C.ar    1  UNL1        0.0346
      8 BR        142.8315  140.4369  170.2226 Br      1  UNL1       -0.0490
      9 C         142.0358  140.7706  167.7719 C.ar    1  UNL1        0.0067
     10 C         141.2496  141.5441  166.7554 C.ar    1  UNL1        0.0004
     11 C         141.2402  141.1043  165.3213 C.ar    1  UNL1       -0.0009
     12 C         140.4539  141.8778  164.3047 C.ar    1  UNL1        0.0182
     13 C         139.4911  145.0765  163.0566 C.3     1  UNL1        0.2525
     14 O         138.8907  143.8647  163.7055 O.3     1  UNL1       -0.4717
     15 C         141.6180  141.7391  161.9861 C.ar    1  UNL1        0.0067
     16 C         141.3956  142.2108  160.5798 C.ar    1  UNL1        0.0984
     17 N         142.5691  142.5119  159.6953 N.ar    1  UNL1       -0.2079
     18 C         143.9649  142.3411  160.2171 C.ar    1  UNL1        0.2601
     19 C         144.1873  141.8693  161.6236 C.ar    1  UNL1        0.1913
     20 C         143.0139  141.5683  162.5081 C.ar    1  UNL1        0.0394
     21 O         145.1384  142.6422  159.3327 O.3     1  UNL1       -0.4541
     22 C         145.0483  142.3927  157.8563 C.3     1  UNL1        0.2543
     23 O         145.5832  141.6986  162.1455 O.3     1  UNL1       -0.4667
     24 C         145.8282  141.6313  163.6238 C.3     1  UNL1        0.2527
     25 C         139.2616  140.6972  162.3211 C.3     1  UNL1        0.1186
     26 O         138.7957  141.9483  161.6373 O.3     1  UNL1       -0.3819
     27 H         139.1376  142.7224  162.1115 H       1  UNL1        0.2107
     28 C         139.7275  139.4461  163.0049 C.ar    1  UNL1        0.0369
     29 C         140.8208  138.6203  162.3943 C.ar    1  UNL1        0.0010
     30 C         141.2867  137.3692  163.0780 C.ar    1  UNL1       -0.0000
     31 C         140.6594  136.9438  164.3725 C.ar    1  UNL1        0.0031
     32 C         139.5661  137.7695  164.9831 C.ar    1  UNL1        0.0375
     33 C         138.7653  137.6028  166.2404 C.ar    1  UNL1        0.0437
     34 C         137.8045  138.7509  166.3337 C.ar    1  UNL1        0.1796
     35 O         138.0115  139.6272  165.1341 O.2     1  UNL1       -0.4507
     36 C         139.1002  139.0207  164.2993 C.ar    1  UNL1        0.1436
     37 C         138.0788  139.9564  161.7716 C.3     1  UNL1        0.0492
     38 C         137.6386  140.1901  160.3568 C.3     1  UNL1        0.0750
     39 N         138.6319  140.0941  159.2368 N.3     1  UNL1       -0.2702
     40 C         139.5316  138.8984  159.1326 C.3     1  UNL1        0.0897
     41 C         138.7254  141.1938  158.2210 C.3     1  UNL1        0.0897
@<TRIPOS>BOND
     1    13    14    1
     2    14     2    1
     3     2     3   ar
     4     3     4   ar
     5     4     5   ar
     6     5     6   ar
     7     6     7   ar
     8     7     8    1
     9     7     9   ar
    10     9    10   ar
    11    10    11   ar
    12    11    12   ar
    13     1    12    1
    14     1    15    1
    15    15    16   ar
    16    16    17   ar
    17    17    18   ar
    18    18    21    1
    19    21    22    1
    20    18    19   ar
    21    19    23    1
    22    23    24    1
    23    19    20   ar
    24     1    25    1
    25    25    26    1
    26    25    37    1
    27    37    38    1
    28    38    39    1
    29    39    40    1
    30    39    41    1
    31    25    28    1
    32    28    29   ar
    33    29    30   ar
    34    30    31   ar
    35    31    32   ar
    36    32    33   ar
    37    33    34   ar
    38    34    35   ar
    39    35    36   ar
    40    12     2   ar
    41    20    15   ar
    42    36    28   ar
    43    10     4   ar
    44    36    32   ar
    45    26    27    1
@<TRIPOS>MOLECULE
*****
 41 45 0 0 0
SMALL
GASTEIGER

@<TRIPOS>ATOM
      1 C         140.8751  140.1135  162.5285 C.3     1  UNL1        0.0777
      2 C         139.2059  138.9051  164.1109 C.ar    1  UNL1        0.1351
      3 C         138.6096  138.7221  165.4750 C.ar    1  UNL1        0.0366
      4 C         139.0861  139.5645  166.6210 C.ar    1  UNL1        0.0030
      5 C         138.4897  139.3815  167.9851 C.ar    1  UNL1        0.0006
      6 C         138.9662  140.2239  169.1311 C.ar    1  UNL1        0.0067
      7 C         140.0391  141.2493  168.9130 C.ar    1  UNL1        0.0346
      8 BR        140.5156  142.0917  170.0591 Br      1  UNL1       -0.0490
      9 C         140.6354  141.4323  167.5489 C.ar    1  UNL1        0.0067
     10 C         140.1589  140.5899  166.4029 C.ar    1  UNL1        0.0004
     11 C         140.7553  140.7729  165.0387 C.ar    1  UNL1       -0.0009
     12 C         140.2788  139.9305  163.8927 C.ar    1  UNL1        0.0182
     13 C         137.7226  138.6121  161.9980 C.3     1  UNL1        0.2525
     14 O         138.7294  138.0627  162.9648 O.3     1  UNL1       -0.4717
     15 C         140.6268  141.3807  161.7653 C.ar    1  UNL1        0.0067
     16 C         141.3856  141.6557  160.5009 C.ar    1  UNL1        0.0984
     17 N         141.1372  142.9229  159.7377 N.ar    1  UNL1       -0.2079
     18 C         140.1301  143.9151  160.2388 C.ar    1  UNL1        0.2601
     19 C         139.3713  143.6402  161.5032 C.ar    1  UNL1        0.1913
     20 C         139.6196  142.3730  162.2665 C.ar    1  UNL1        0.0394
     21 O         139.8818  145.1823  159.4756 O.3     1  UNL1       -0.4541
     22 C         140.8274  145.6010  158.3891 C.3     1  UNL1        0.2543
     23 O         138.3642  144.6324  162.0043 O.3     1  UNL1       -0.4667
     24 C         137.6246  144.3699  163.2827 C.3     1  UNL1        0.2527
     25 C         141.7197  139.0293  161.9277 C.3     1  UNL1        0.1186
     26 O         140.7484  138.9022  160.7918 O.3     1  UNL1       -0.3819
     27 H         139.8722  139.2018  161.0805 H       1  UNL1        0.2107
     28 C         142.6911  139.1565  163.0636 C.ar    1  UNL1        0.0369
     29 C         142.5897  138.2361  164.2437 C.ar    1  UNL1        0.0010
     30 C         143.5610  138.3632  165.3796 C.ar    1  UNL1       -0.0000
     31 C         144.6337  139.4107  165.3354 C.ar    1  UNL1        0.0031
     32 C         144.7351  140.3311  164.1554 C.ar    1  UNL1        0.0375
     33 C         145.6800  141.4510  163.8342 C.ar    1  UNL1        0.0437
     34 C         145.2926  142.0160  162.4997 C.ar    1  UNL1        0.1796
     35 O         144.1083  141.2453  161.9962 O.2     1  UNL1       -0.4507
     36 C         143.7638  140.2040  163.0194 C.ar    1  UNL1        0.1436
     37 C         142.5644  137.9451  161.3268 C.3     1  UNL1        0.0492
     38 C         143.6364  138.2915  160.3364 C.3     1  UNL1        0.0750
     39 N         143.2698  138.6274  158.9211 N.3     1  UNL1       -0.2702
     40 C         142.5513  137.6201  158.0732 C.3     1  UNL1        0.0897
     41 C         143.6217  139.9706  158.3539 C.3     1  UNL1        0.0897
@<TRIPOS>BOND
     1    13    14    1
     2    14     2    1
     3     2     3   ar
     4     3     4   ar
     5     4     5   ar
     6     5     6   ar
     7     6     7   ar
     8     7     8    1
     9     7     9   ar
    10     9    10   ar
    11    10    11   ar
    12    11    12   ar
    13     1    12    1
    14     1    15    1
    15    15    16   ar
    16    16    17   ar
    17    17    18   ar
    18    18    21    1
    19    21    22    1
    20    18    19   ar
    21    19    23    1
    22    23    24    1
    23    19    20   ar
    24     1    25    1
    25    25    26    1
    26    25    37    1
    27    37    38    1
    28    38    39    1
    29    39    40    1
    30    39    41    1
    31    25    28    1
    32    28    29   ar
    33    29    30   ar
    34    30    31   ar
    35    31    32   ar
    36    32    33   ar
    37    33    34   ar
    38    34    35   ar
    39    35    36   ar
    40    12     2   ar
    41    20    15   ar
    42    36    28   ar
    43    10     4   ar
    44    36    32   ar
    45    26    27    1
@<TRIPOS>MOLECULE
*****
 41 45 0 0 0
SMALL
GASTEIGER

@<TRIPOS>ATOM
      1 C         142.3203  141.0277  163.2386 C.3     1  UNL1        0.0777
      2 C         143.5519  142.3538  165.1027 C.ar    1  UNL1        0.1351
      3 C         143.7263  142.7001  166.5516 C.ar    1  UNL1        0.0366
      4 C         142.8433  142.0667  167.5857 C.ar    1  UNL1        0.0030
      5 C         143.0177  142.4131  169.0347 C.ar    1  UNL1        0.0006
      6 C         142.1347  141.7797  170.0687 C.ar    1  UNL1        0.0067
      7 C         141.0774  140.8000  169.6537 C.ar    1  UNL1        0.0346
      8 BR        140.1944  140.1666  170.6878 Br      1  UNL1       -0.0490
      9 C         140.9030  140.4536  168.2047 C.ar    1  UNL1        0.0067
     10 C         141.7860  141.0870  167.1707 C.ar    1  UNL1        0.0004
     11 C         141.6117  140.7406  165.7216 C.ar    1  UNL1       -0.0009
     12 C         142.4946  141.3740  164.6877 C.ar    1  UNL1        0.0182
     13 C         144.1092  144.3521  163.5386 C.3     1  UNL1        0.2525
     14 O         144.4349  142.9871  164.0686 O.3     1  UNL1       -0.4717
     15 C         141.6267  141.9862  162.3166 C.ar    1  UNL1        0.0067
     16 C         142.2790  142.3930  161.0286 C.ar    1  UNL1        0.0984
     17 N         141.5854  143.3516  160.1066 N.ar    1  UNL1       -0.2079
     18 C         140.2395  143.9033  160.4725 C.ar    1  UNL1        0.2601
     19 C         139.5871  143.4965  161.7606 C.ar    1  UNL1        0.1913
     20 C         140.2807  142.5380  162.6826 C.ar    1  UNL1        0.0394
     21 O         139.5459  144.8619  159.5505 O.3     1  UNL1       -0.4541
     22 C         140.3085  145.5159  158.4367 C.3     1  UNL1        0.2543
     23 O         138.2411  144.0483  162.1265 O.3     1  UNL1       -0.4667
     24 C         137.7773  144.0100  163.5525 C.3     1  UNL1        0.2527
     25 C         142.8395  139.7229  162.7116 C.3     1  UNL1        0.1186
     26 O         144.1692  140.3616  162.4402 O.3     1  UNL1       -0.3819
     27 H         144.0493  141.3154  162.3104 H       1  UNL1        0.2107
     28 C         141.5098  139.0841  162.9831 C.ar    1  UNL1        0.0369
     29 C         141.2593  138.4020  164.2954 C.ar    1  UNL1        0.0010
     30 C         139.9296  137.7632  164.5668 C.ar    1  UNL1       -0.0000
     31 C         138.8503  137.8065  163.5260 C.ar    1  UNL1        0.0031
     32 C         139.1007  138.4885  162.2138 C.ar    1  UNL1        0.0375
     33 C         138.2347  138.6894  161.0056 C.ar    1  UNL1        0.0437
     34 C         139.0292  139.4524  159.9874 C.ar    1  UNL1        0.1796
     35 O         140.3863  139.7230  160.5663 O.2     1  UNL1       -0.4507
     36 C         140.4305  139.1273  161.9423 C.ar    1  UNL1        0.1436
     37 C         143.3588  138.4180  162.1846 C.3     1  UNL1        0.0492
     38 C         144.1918  138.3910  160.9375 C.3     1  UNL1        0.0750
     39 N         143.5692  138.7184  159.6125 N.3     1  UNL1       -0.2702
     40 C         143.8374  140.0447  158.9652 C.3     1  UNL1        0.0897
     41 C         142.6786  137.7196  158.9351 C.3     1  UNL1        0.0897
@<TRIPOS>BOND
     1    13    14    1
     2    14     2    1
     3     2     3   ar
     4     3     4   ar
     5     4     5   ar
     6     5     6   ar
     7     6     7   ar
     8     7     8    1
     9     7     9   ar
    10     9    10   ar
    11    10    11   ar
    12    11    12   ar
    13     1    12    1
    14     1    15    1
    15    15    16   ar
    16    16    17   ar
    17    17    18   ar
    18    18    21    1
    19    21    22    1
    20    18    19   ar
    21    19    23    1
    22    23    24    1
    23    19    20   ar
    24     1    25    1
    25    25    26    1
    26    25    37    1
    27    37    38    1
    28    38    39    1
    29    39    40    1
    30    39    41    1
    31    25    28    1
    32    28    29   ar
    33    29    30   ar
    34    30    31   ar
    35    31    32   ar
    36    32    33   ar
    37    33    34   ar
    38    34    35   ar
    39    35    36   ar
    40    12     2   ar
    41    20    15   ar
    42    36    28   ar
    43    10     4   ar
    44    36    32   ar
    45    26    27    1
@<TRIPOS>MOLECULE
*****
 41 45 0 0 0
SMALL
GASTEIGER

@<TRIPOS>ATOM
      1 C         140.3412  140.5350  164.2559 C.3     1  UNL1        0.0777
      2 C         139.2305  139.8091  166.4896 C.ar    1  UNL1        0.1351
      3 C         139.1530  139.8824  167.9858 C.ar    1  UNL1        0.0366
      4 C         140.1086  140.7549  168.7445 C.ar    1  UNL1        0.0030
      5 C         140.0310  140.8281  170.2407 C.ar    1  UNL1        0.0006
      6 C         140.9866  141.7006  170.9994 C.ar    1  UNL1        0.0067
      7 C         142.0197  142.4998  170.2619 C.ar    1  UNL1        0.0346
      8 BR        142.9753  143.3723  171.0206 Br      1  UNL1       -0.0490
      9 C         142.0973  142.4265  168.7657 C.ar    1  UNL1        0.0067
     10 C         141.1417  141.5541  168.0070 C.ar    1  UNL1        0.0004
     11 C         141.2192  141.4808  166.5108 C.ar    1  UNL1       -0.0009
     12 C         140.2637  140.6083  165.7521 C.ar    1  UNL1        0.0182
     13 C         138.3723  137.4439  165.8419 C.3     1  UNL1        0.2525
     14 O         138.2749  138.9366  165.7309 O.3     1  UNL1       -0.4717
     15 C         140.1422  141.7733  163.4330 C.ar    1  UNL1        0.0067
     16 C         140.8657  143.0371  163.7927 C.ar    1  UNL1        0.0984
     17 N         140.6668  144.2753  162.9698 N.ar    1  UNL1       -0.2079
     18 C         139.7443  144.2499  161.7873 C.ar    1  UNL1        0.2601
     19 C         139.0207  142.9861  161.4276 C.ar    1  UNL1        0.1913
     20 C         139.2197  141.7478  162.2505 C.ar    1  UNL1        0.0394
     21 O         139.5453  145.4882  160.9645 O.3     1  UNL1       -0.4541
     22 C         140.3517  145.6974  159.7172 C.3     1  UNL1        0.2543
     23 O         138.0982  142.9606  160.2451 O.3     1  UNL1       -0.4667
     24 C         138.6045  142.5050  158.9086 C.3     1  UNL1        0.2527
     25 C         140.6176  139.2235  163.5825 C.3     1  UNL1        0.1186
     26 O         139.2333  139.2282  163.0050 O.3     1  UNL1       -0.3819
     27 H         138.6498  139.7603  163.5683 H       1  UNL1        0.2107
     28 C         142.0019  139.2188  164.1601 C.ar    1  UNL1        0.0369
     29 C         142.3068  138.3869  165.3706 C.ar    1  UNL1        0.0010
     30 C         143.6911  138.3822  165.9481 C.ar    1  UNL1       -0.0000
     31 C         144.7706  139.2093  165.3153 C.ar    1  UNL1        0.0031
     32 C         144.4658  140.0412  164.1049 C.ar    1  UNL1        0.0375
     33 C         145.3190  140.9507  163.2713 C.ar    1  UNL1        0.0437
     34 C         144.4619  141.5175  162.1784 C.ar    1  UNL1        0.1796
     35 O         143.0791  140.9583  162.3367 O.2     1  UNL1       -0.4507
     36 C         143.0815  140.0459  163.5273 C.ar    1  UNL1        0.1436
     37 C         140.8941  137.9120  162.9092 C.3     1  UNL1        0.0492
     38 C         140.7674  137.7924  161.4194 C.3     1  UNL1        0.0750
     39 N         141.9486  138.0799  160.5407 N.3     1  UNL1       -0.2702
     40 C         141.7597  138.8151  159.2469 C.3     1  UNL1        0.0897
     41 C         143.3187  137.6322  160.9557 C.3     1  UNL1        0.0897
@<TRIPOS>BOND
     1    13    14    1
     2    14     2    1
     3     2     3   ar
     4     3     4   ar
     5     4     5   ar
     6     5     6   ar
     7     6     7   ar
     8     7     8    1
     9     7     9   ar
    10     9    10   ar
    11    10    11   ar
    12    11    12   ar
    13     1    12    1
    14     1    15    1
    15    15    16   ar
    16    16    17   ar
    17    17    18   ar
    18    18    21    1
    19    21    22    1
    20    18    19   ar
    21    19    23    1
    22    23    24    1
    23    19    20   ar
    24     1    25    1
    25    25    26    1
    26    25    37    1
    27    37    38    1
    28    38    39    1
    29    39    40    1
    30    39    41    1
    31    25    28    1
    32    28    29   ar
    33    29    30   ar
    34    30    31   ar
    35    31    32   ar
    36    32    33   ar
    37    33    34   ar
    38    34    35   ar
    39    35    36   ar
    40    12     2   ar
    41    20    15   ar
    42    36    28   ar
    43    10     4   ar
    44    36    32   ar
    45    26    27    1
@<TRIPOS>MOLECULE
*****
 41 45 0 0 0
SMALL
GASTEIGER

@<TRIPOS>ATOM
      1 C         141.0255  141.4806  162.4480 C.3     1  UNL1        0.0777
      2 C         140.4337  139.6890  164.2341 C.ar    1  UNL1        0.1351
      3 C         140.1641  139.3180  165.6622 C.ar    1  UNL1        0.0366
      4 C         140.2167  140.3676  166.7326 C.ar    1  UNL1        0.0030
      5 C         139.9471  139.9965  168.1607 C.ar    1  UNL1        0.0006
      6 C         139.9998  141.0461  169.2310 C.ar    1  UNL1        0.0067
      7 C         140.3220  142.4667  168.8732 C.ar    1  UNL1        0.0346
      8 BR        140.3747  143.5163  169.9436 Br      1  UNL1       -0.0490
      9 C         140.5916  142.8377  167.4451 C.ar    1  UNL1        0.0067
     10 C         140.5390  141.7882  166.3748 C.ar    1  UNL1        0.0004
     11 C         140.8086  142.1592  164.9465 C.ar    1  UNL1       -0.0009
     12 C         140.7559  141.1096  163.8762 C.ar    1  UNL1        0.0182
     13 C         139.1055  137.8927  162.9076 C.3     1  UNL1        0.2525
     14 O         140.3810  138.6394  163.1637 O.3     1  UNL1       -0.4717
     15 C         140.0169  141.1572  161.3859 C.ar    1  UNL1        0.0067
     16 C         138.6083  141.6569  161.5122 C.ar    1  UNL1        0.0984
     17 N         137.5997  141.3335  160.4501 N.ar    1  UNL1       -0.2079
     18 C         137.9996  140.5103  159.2617 C.ar    1  UNL1        0.2601
     19 C         139.4083  140.0105  159.1354 C.ar    1  UNL1        0.1913
     20 C         140.4170  140.3340  160.1975 C.ar    1  UNL1        0.0394
     21 O         136.9910  140.1869  158.1996 O.3     1  UNL1       -0.4541
     22 C         136.9252  141.0150  156.9507 C.3     1  UNL1        0.2543
     23 O         139.8083  139.1874  157.9470 O.3     1  UNL1       -0.4667
     24 C         141.1627  138.5441  157.9017 C.3     1  UNL1        0.2527
     25 C         142.3037  142.1750  162.0820 C.3     1  UNL1        0.1186
     26 O         143.0697  140.9189  162.3740 O.3     1  UNL1       -0.3819
     27 H         142.5763  140.3802  163.0121 H       1  UNL1        0.2107
     28 C         141.5377  143.4311  161.7899 C.ar    1  UNL1        0.0369
     29 C         140.9853  144.2520  162.9174 C.ar    1  UNL1        0.0010
     30 C         140.2193  145.5081  162.6253 C.ar    1  UNL1       -0.0000
     31 C         140.0056  145.9434  161.2058 C.ar    1  UNL1        0.0031
     32 C         140.5579  145.1225  160.0784 C.ar    1  UNL1        0.0375
     33 C         140.5071  145.2989  158.5897 C.ar    1  UNL1        0.0437
     34 C         141.2417  144.1518  157.9617 C.ar    1  UNL1        0.1796
     35 O         141.7466  143.2664  159.0622 O.2     1  UNL1       -0.4507
     36 C         141.3239  143.8663  160.3704 C.ar    1  UNL1        0.1436
     37 C         143.5819  142.8694  161.7159 C.3     1  UNL1        0.0492
     38 C         144.4193  143.5104  162.7826 C.3     1  UNL1        0.0750
     39 N         144.8362  142.7180  163.9861 N.3     1  UNL1       -0.2702
     40 C         144.2513  143.0332  165.3310 C.3     1  UNL1        0.0897
     41 C         145.8379  141.6106  163.8448 C.3     1  UNL1        0.0897
@<TRIPOS>BOND
     1    13    14    1
     2    14     2    1
     3     2     3   ar
     4     3     4   ar
     5     4     5   ar
     6     5     6   ar
     7     6     7   ar
     8     7     8    1
     9     7     9   ar
    10     9    10   ar
    11    10    11   ar
    12    11    12   ar
    13     1    12    1
    14     1    15    1
    15    15    16   ar
    16    16    17   ar
    17    17    18   ar
    18    18    21    1
    19    21    22    1
    20    18    19   ar
    21    19    23    1
    22    23    24    1
    23    19    20   ar
    24     1    25    1
    25    25    26    1
    26    25    37    1
    27    37    38    1
    28    38    39    1
    29    39    40    1
    30    39    41    1
    31    25    28    1
    32    28    29   ar
    33    29    30   ar
    34    30    31   ar
    35    31    32   ar
    36    32    33   ar
    37    33    34   ar
    38    34    35   ar
    39    35    36   ar
    40    12     2   ar
    41    20    15   ar
    42    36    28   ar
    43    10     4   ar
    44    36    32   ar
    45    26    27    1
@<TRIPOS>MOLECULE
*****
 41 45 0 0 0
SMALL
GASTEIGER

@<TRIPOS>ATOM
      1 C         141.8566  141.7039  162.5495 C.3     1  UNL1        0.0777
      2 C         140.0773  142.3560  164.3269 C.ar    1  UNL1        0.1351
      3 C         139.7122  142.6537  165.7510 C.ar    1  UNL1        0.0366
      4 C         140.7611  142.5970  166.8218 C.ar    1  UNL1        0.0030
      5 C         140.3959  142.8946  168.2459 C.ar    1  UNL1        0.0006
      6 C         141.4447  142.8379  169.3166 C.ar    1  UNL1        0.0067
      7 C         142.8588  142.4835  168.9634 C.ar    1  UNL1        0.0346
      8 BR        143.9077  142.4268  170.0342 Br      1  UNL1       -0.0490
      9 C         143.2240  142.1858  167.5393 C.ar    1  UNL1        0.0067
     10 C         142.1751  142.2425  166.4685 C.ar    1  UNL1        0.0004
     11 C         142.5403  141.9449  165.0444 C.ar    1  UNL1       -0.0009
     12 C         141.4914  142.0016  163.9736 C.ar    1  UNL1        0.0182
     13 C         137.6250  141.9771  163.5571 C.3     1  UNL1        0.2525
     14 O         139.0284  142.4127  163.2560 O.3     1  UNL1       -0.4717
     15 C         141.5883  142.7193  161.4785 C.ar    1  UNL1        0.0067
     16 C         142.0458  144.1366  161.6572 C.ar    1  UNL1        0.0984
     17 N         141.7775  145.1520  160.5862 N.ar    1  UNL1       -0.2079
     18 C         141.0518  144.7501  159.3365 C.ar    1  UNL1        0.2601
     19 C         140.5943  143.3327  159.1578 C.ar    1  UNL1        0.1913
     20 C         140.8625  142.3173  160.2288 C.ar    1  UNL1        0.0394
     21 O         140.7835  145.7655  158.2656 O.3     1  UNL1       -0.4541
     22 C         141.7527  145.9353  157.1334 C.3     1  UNL1        0.2543
     23 O         139.8685  142.9309  157.9081 O.3     1  UNL1       -0.4667
     24 C         138.4553  142.4342  157.9883 C.3     1  UNL1        0.2527
     25 C         142.4900  140.3909  162.1964 C.3     1  UNL1        0.1186
     26 O         143.6431  141.1160  161.5683 O.3     1  UNL1       -0.3819
     27 H         143.3541  141.9967  161.2823 H       1  UNL1        0.2107
     28 C         141.3369  139.6657  162.8244 C.ar    1  UNL1        0.0369
     29 C         141.4385  139.1783  164.2395 C.ar    1  UNL1        0.0010
     30 C         140.2854  138.4532  164.8675 C.ar    1  UNL1       -0.0000
     31 C         139.0307  138.2154  164.0806 C.ar    1  UNL1        0.0031
     32 C         138.9290  138.7028  162.6657 C.ar    1  UNL1        0.0375
     33 C         137.8280  138.6158  161.6508 C.ar    1  UNL1        0.0437
     34 C         138.3006  139.2872  160.3954 C.ar    1  UNL1        0.1796
     35 O         139.6938  139.7891  160.6345 O.2     1  UNL1       -0.4507
     36 C         140.0822  139.4280  162.0376 C.ar    1  UNL1        0.1436
     37 C         143.1234  139.0778  161.8433 C.3     1  UNL1        0.0492
     38 C         144.0392  138.9812  160.6593 C.3     1  UNL1        0.0750
     39 N         143.4745  139.0105  159.2699 N.3     1  UNL1       -0.2702
     40 C         142.5416  137.9270  158.8166 C.3     1  UNL1        0.0897
     41 C         143.8427  140.1233  158.3340 C.3     1  UNL1        0.0897
@<TRIPOS>BOND
     1    13    14    1
     2    14     2    1
     3     2     3   ar
     4     3     4   ar
     5     4     5   ar
     6     5     6   ar
     7     6     7   ar
     8     7     8    1
     9     7     9   ar
    10     9    10   ar
    11    10    11   ar
    12    11    12   ar
    13     1    12    1
    14     1    15    1
    15    15    16   ar
    16    16    17   ar
    17    17    18   ar
    18    18    21    1
    19    21    22    1
    20    18    19   ar
    21    19    23    1
    22    23    24    1
    23    19    20   ar
    24     1    25    1
    25    25    26    1
    26    25    37    1
    27    37    38    1
    28    38    39    1
    29    39    40    1
    30    39    41    1
    31    25    28    1
    32    28    29   ar
    33    29    30   ar
    34    30    31   ar
    35    31    32   ar
    36    32    33   ar
    37    33    34   ar
    38    34    35   ar
    39    35    36   ar
    40    12     2   ar
    41    20    15   ar
    42    36    28   ar
    43    10     4   ar
    44    36    32   ar
    45    26    27    1
@<TRIPOS>MOLECULE
*****
 41 45 0 0 0
SMALL
GASTEIGER

@<TRIPOS>ATOM
      1 C         141.9392  142.4722  162.8104 C.3     1  UNL1        0.0777
      2 C         143.5368  142.7237  164.8437 C.ar    1  UNL1        0.1351
      3 C         143.7899  142.6149  166.3182 C.ar    1  UNL1        0.0366
      4 C         142.6983  142.1459  167.2339 C.ar    1  UNL1        0.0030
      5 C         142.9513  142.0371  168.7084 C.ar    1  UNL1        0.0006
      6 C         141.8597  141.5682  169.6241 C.ar    1  UNL1        0.0067
      7 C         140.5151  141.2080  169.0652 C.ar    1  UNL1        0.0346
      8 BR        139.4235  140.7390  169.9810 Br      1  UNL1       -0.0490
      9 C         140.2621  141.3167  167.5908 C.ar    1  UNL1        0.0067
     10 C         141.3536  141.7857  166.6751 C.ar    1  UNL1        0.0004
     11 C         141.1006  141.8945  165.2006 C.ar    1  UNL1       -0.0009
     12 C         142.1922  142.3635  164.2849 C.ar    1  UNL1        0.0182
     13 C         145.5229  142.1945  163.2545 C.3     1  UNL1        0.2525
     14 O         144.6284  143.1927  163.9280 O.3     1  UNL1       -0.4717
     15 C         142.0760  141.2621  161.9347 C.ar    1  UNL1        0.0067
     16 C         142.5389  141.4115  160.5158 C.ar    1  UNL1        0.0984
     17 N         142.6757  140.2014  159.6401 N.ar    1  UNL1       -0.2079
     18 C         142.3496  138.8418  160.1833 C.ar    1  UNL1        0.2601
     19 C         141.8866  138.6923  161.6022 C.ar    1  UNL1        0.1913
     20 C         141.7498  139.9025  162.4779 C.ar    1  UNL1        0.0394
     21 O         142.4864  137.6317  159.3076 O.3     1  UNL1       -0.4541
     22 C         142.6276  137.7923  157.8230 C.3     1  UNL1        0.2543
     23 O         141.5605  137.3327  162.1455 O.3     1  UNL1       -0.4667
     24 C         141.0262  137.1906  163.5399 C.3     1  UNL1        0.2527
     25 C         141.5494  143.7911  162.2116 C.3     1  UNL1        0.1186
     26 O         142.8168  143.8014  161.4093 O.3     1  UNL1       -0.3819
     27 H         143.4884  143.2650  161.8589 H       1  UNL1        0.2107
     28 C         140.2821  143.7808  163.0138 C.ar    1  UNL1        0.0369
     29 C         140.0962  144.7599  164.1350 C.ar    1  UNL1        0.0010
     30 C         138.8288  144.7496  164.9373 C.ar    1  UNL1       -0.0000
     31 C         137.7474  143.7603  164.6185 C.ar    1  UNL1        0.0031
     32 C         137.9332  142.7812  163.4974 C.ar    1  UNL1        0.0375
     33 C         137.0499  141.6973  162.9546 C.ar    1  UNL1        0.0437
     34 C         137.7713  141.0376  161.8168 C.ar    1  UNL1        0.1796
     35 O         139.1005  141.7139  161.6564 O.2     1  UNL1       -0.4507
     36 C         139.2006  142.7915  162.6950 C.ar    1  UNL1        0.1436
     37 C         141.1597  145.1100  161.6128 C.3     1  UNL1        0.0492
     38 C         140.2516  145.1530  160.4196 C.3     1  UNL1        0.0750
     39 N         140.6770  144.5156  159.1301 N.3     1  UNL1       -0.2702
     40 C         139.9970  143.2677  158.6501 C.3     1  UNL1        0.0897
     41 C         141.7824  145.1261  158.3206 C.3     1  UNL1        0.0897
@<TRIPOS>BOND
     1    13    14    1
     2    14     2    1
     3     2     3   ar
     4     3     4   ar
     5     4     5   ar
     6     5     6   ar
     7     6     7   ar
     8     7     8    1
     9     7     9   ar
    10     9    10   ar
    11    10    11   ar
    12    11    12   ar
    13     1    12    1
    14     1    15    1
    15    15    16   ar
    16    16    17   ar
    17    17    18   ar
    18    18    21    1
    19    21    22    1
    20    18    19   ar
    21    19    23    1
    22    23    24    1
    23    19    20   ar
    24     1    25    1
    25    25    26    1
    26    25    37    1
    27    37    38    1
    28    38    39    1
    29    39    40    1
    30    39    41    1
    31    25    28    1
    32    28    29   ar
    33    29    30   ar
    34    30    31   ar
    35    31    32   ar
    36    32    33   ar
    37    33    34   ar
    38    34    35   ar
    39    35    36   ar
    40    12     2   ar
    41    20    15   ar
    42    36    28   ar
    43    10     4   ar
    44    36    32   ar
    45    26    27    1
