@<TRIPOS>MOLECULE
*****
 19 21 0 0 0
SMALL
GASTEIGER

@<TRIPOS>ATOM
      1 N         142.1890  141.6863  164.4541 N.ar    1  UNL1       -0.3248
      2 C         142.0297  141.2492  165.8801 C.ar    1  UNL1        0.0759
      3 C         140.9211  142.0543  166.4905 C.ar    1  UNL1        0.0188
      4 C         140.3952  142.9890  165.4418 C.ar    1  UNL1        0.0203
      5 C         139.3041  144.0179  165.4704 C.ar    1  UNL1        0.0222
      6 C         138.9966  144.8193  164.2403 C.ar    1  UNL1        0.0990
      7 N         139.7803  144.5919  162.9816 N.ar    1  UNL1       -0.2408
      8 C         140.8714  143.5630  162.9531 C.ar    1  UNL1        0.1160
      9 C         141.1789  142.7616  164.1832 C.ar    1  UNL1        0.0794
     10 C         140.4253  141.9441  167.9019 C.ar    1  UNL1        0.0046
     11 C         140.5590  143.1094  168.8370 C.ar    1  UNL1        0.0207
     12 C         140.0632  142.9992  170.2484 C.ar    1  UNL1        0.0989
     13 N         139.4337  141.7238  170.7248 N.ar    1  UNL1       -0.2423
     14 C         139.2999  140.5585  169.7897 C.ar    1  UNL1        0.0989
     15 C         139.7957  140.6688  168.3783 C.ar    1  UNL1        0.0207
     16 C         143.1838  141.1435  163.4714 C.3     1  UNL1        0.1060
     17 C         145.6421  141.8785  163.8803 C.3     1  UNL1        0.0020
     18 C         144.5792  140.8207  163.9175 C.3     1  UNL1        0.0226
     19 C         144.9116  139.4401  164.4007 C.3     1  UNL1        0.0020
@<TRIPOS>BOND
     1    17    18    1
     2    18    19    1
     3    18    16    1
     4    16     1    1
     5     1     2   ar
     6     2     3   ar
     7     3    10    1
     8    10    11   ar
     9    11    12   ar
    10    12    13   ar
    11    13    14   ar
    12    14    15   ar
    13     3     4   ar
    14     4     5   ar
    15     5     6   ar
    16     6     7   ar
    17     7     8   ar
    18     8     9   ar
    19     9     1   ar
    20    15    10   ar
    21     9     4   ar
@<TRIPOS>MOLECULE
*****
 19 21 0 0 0
SMALL
GASTEIGER

@<TRIPOS>ATOM
      1 N         139.3088  139.7708  165.7841 N.ar    1  UNL1       -0.3248
      2 C         140.1127  139.9968  167.0301 C.ar    1  UNL1        0.0759
      3 C         140.3697  141.4693  167.1551 C.ar    1  UNL1        0.0188
      4 C         139.7246  142.1534  165.9864 C.ar    1  UNL1        0.0203
      5 C         139.6495  143.5965  165.5843 C.ar    1  UNL1        0.0222
      6 C         138.9188  143.9898  164.3348 C.ar    1  UNL1        0.0990
      7 N         138.2631  142.9400  163.4875 N.ar    1  UNL1       -0.2408
      8 C         138.3381  141.4969  163.8896 C.ar    1  UNL1        0.1160
      9 C         139.0689  141.1036  165.1390 C.ar    1  UNL1        0.0794
     10 C         141.1371  142.1401  168.2557 C.ar    1  UNL1        0.0046
     11 C         140.4596  143.1485  169.1357 C.ar    1  UNL1        0.0207
     12 C         141.2270  143.8193  170.2363 C.ar    1  UNL1        0.0989
     13 N         142.6718  143.4817  170.4568 N.ar    1  UNL1       -0.2423
     14 C         143.3492  142.4734  169.5768 C.ar    1  UNL1        0.0989
     15 C         142.5818  141.8026  168.4763 C.ar    1  UNL1        0.0207
     16 C         138.8289  138.4447  165.2729 C.3     1  UNL1        0.1060
     17 C         140.8840  137.1959  164.2893 C.3     1  UNL1        0.0020
     18 C         139.5200  137.7940  164.1113 C.3     1  UNL1        0.0226
     19 C         138.8470  137.7415  162.7718 C.3     1  UNL1        0.0020
@<TRIPOS>BOND
     1    17    18    1
     2    18    19    1
     3    18    16    1
     4    16     1    1
     5     1     2   ar
     6     2     3   ar
     7     3    10    1
     8    10    11   ar
     9    11    12   ar
    10    12    13   ar
    11    13    14   ar
    12    14    15   ar
    13     3     4   ar
    14     4     5   ar
    15     5     6   ar
    16     6     7   ar
    17     7     8   ar
    18     8     9   ar
    19     9     1   ar
    20    15    10   ar
    21     9     4   ar
@<TRIPOS>MOLECULE
*****
 19 21 0 0 0
SMALL
GASTEIGER

@<TRIPOS>ATOM
      1 N         142.2688  141.0470  165.1370 N.ar    1  UNL1       -0.3248
      2 C         142.4473  141.6048  166.5179 C.ar    1  UNL1        0.0759
      3 C         141.2802  141.1637  167.3504 C.ar    1  UNL1        0.0188
      4 C         140.3803  140.3332  166.4841 C.ar    1  UNL1        0.0203
      5 C         139.0835  139.6333  166.7642 C.ar    1  UNL1        0.0222
      6 C         138.3977  138.8613  165.6762 C.ar    1  UNL1        0.0990
      7 N         139.0087  138.7892  164.3082 N.ar    1  UNL1       -0.2408
      8 C         140.3055  139.4891  164.0281 C.ar    1  UNL1        0.1160
      9 C         140.9913  140.2611  165.1161 C.ar    1  UNL1        0.0794
     10 C         141.0528  141.4949  168.7956 C.ar    1  UNL1        0.0046
     11 C         141.6625  140.6390  169.8662 C.ar    1  UNL1        0.0207
     12 C         141.4351  140.9702  171.3114 C.ar    1  UNL1        0.0989
     13 N         140.5981  142.1572  171.6861 N.ar    1  UNL1       -0.2423
     14 C         139.9884  143.0130  170.6157 C.ar    1  UNL1        0.0989
     15 C         140.2158  142.6818  169.1704 C.ar    1  UNL1        0.0207
     16 C         143.2035  141.2410  163.9800 C.3     1  UNL1        0.1060
     17 C         144.8992  139.3416  164.4974 C.3     1  UNL1        0.0020
     18 C         144.6187  140.7516  164.0690 C.3     1  UNL1        0.0226
     19 C         145.7534  141.6720  163.7295 C.3     1  UNL1        0.0020
@<TRIPOS>BOND
     1    17    18    1
     2    18    19    1
     3    18    16    1
     4    16     1    1
     5     1     2   ar
     6     2     3   ar
     7     3    10    1
     8    10    11   ar
     9    11    12   ar
    10    12    13   ar
    11    13    14   ar
    12    14    15   ar
    13     3     4   ar
    14     4     5   ar
    15     5     6   ar
    16     6     7   ar
    17     7     8   ar
    18     8     9   ar
    19     9     1   ar
    20    15    10   ar
    21     9     4   ar
@<TRIPOS>MOLECULE
*****
 19 21 0 0 0
SMALL
GASTEIGER

@<TRIPOS>ATOM
      1 N         142.3044  141.1104  165.1287 N.ar    1  UNL1       -0.3248
      2 C         142.4840  141.6547  166.5149 C.ar    1  UNL1        0.0759
      3 C         141.3191  141.2027  167.3448 C.ar    1  UNL1        0.0188
      4 C         140.4195  140.3791  166.4715 C.ar    1  UNL1        0.0203
      5 C         139.1247  139.6738  166.7465 C.ar    1  UNL1        0.0222
      6 C         138.4387  138.9114  165.6519 C.ar    1  UNL1        0.0990
      7 N         139.0477  138.8544  164.2823 N.ar    1  UNL1       -0.2408
      8 C         140.3426  139.5598  164.0072 C.ar    1  UNL1        0.1160
      9 C         141.0285  140.3221  165.1019 C.ar    1  UNL1        0.0794
     10 C         141.0933  141.5188  168.7936 C.ar    1  UNL1        0.0046
     11 C         140.2001  142.6596  169.1821 C.ar    1  UNL1        0.0207
     12 C         139.9743  142.9756  170.6309 C.ar    1  UNL1        0.0989
     13 N         140.6417  142.1510  171.6913 N.ar    1  UNL1       -0.2423
     14 C         141.5350  141.0103  171.3029 C.ar    1  UNL1        0.0989
     15 C         141.7607  140.6942  169.8540 C.ar    1  UNL1        0.0207
     16 C         143.2369  141.3181  163.9723 C.3     1  UNL1        0.1060
     17 C         145.7924  141.6439  163.6354 C.3     1  UNL1        0.0020
     18 C         144.6343  140.7756  164.0289 C.3     1  UNL1        0.0226
     19 C         144.8736  139.3649  164.4790 C.3     1  UNL1        0.0020
@<TRIPOS>BOND
     1    17    18    1
     2    18    19    1
     3    18    16    1
     4    16     1    1
     5     1     2   ar
     6     2     3   ar
     7     3    10    1
     8    10    11   ar
     9    11    12   ar
    10    12    13   ar
    11    13    14   ar
    12    14    15   ar
    13     3     4   ar
    14     4     5   ar
    15     5     6   ar
    16     6     7   ar
    17     7     8   ar
    18     8     9   ar
    19     9     1   ar
    20    15    10   ar
    21     9     4   ar
@<TRIPOS>MOLECULE
*****
 19 21 0 0 0
SMALL
GASTEIGER

@<TRIPOS>ATOM
      1 N         142.1708  139.1834  165.4627 N.ar    1  UNL1       -0.3248
      2 C         141.6879  139.7126  166.7805 C.ar    1  UNL1        0.0759
      3 C         142.2803  141.0765  166.9774 C.ar    1  UNL1        0.0188
      4 C         143.1292  141.3903  165.7812 C.ar    1  UNL1        0.0203
      5 C         143.9551  142.5902  165.4235 C.ar    1  UNL1        0.0222
      6 C         144.7133  142.6201  164.1296 C.ar    1  UNL1        0.0990
      7 N         144.6457  141.4501  163.1934 N.ar    1  UNL1       -0.2408
      8 C         143.8198  140.2502  163.5512 C.ar    1  UNL1        0.1160
      9 C         143.0615  140.2203  164.8450 C.ar    1  UNL1        0.0794
     10 C         142.0620  141.9699  168.1624 C.ar    1  UNL1        0.0046
     11 C         143.1569  142.1601  169.1701 C.ar    1  UNL1        0.0207
     12 C         142.9386  143.0535  170.3551 C.ar    1  UNL1        0.0989
     13 N         141.6256  143.7567  170.5325 N.ar    1  UNL1       -0.2423
     14 C         140.5309  143.5665  169.5249 C.ar    1  UNL1        0.0989
     15 C         140.7491  142.6731  168.3399 C.ar    1  UNL1        0.0207
     16 C         141.8238  137.8512  164.8669 C.3     1  UNL1        0.1060
     17 C         140.5171  137.6130  162.6340 C.3     1  UNL1        0.0020
     18 C         140.5279  137.6725  164.1328 C.3     1  UNL1        0.0226
     19 C         139.2429  137.5534  164.8974 C.3     1  UNL1        0.0020
@<TRIPOS>BOND
     1    17    18    1
     2    18    19    1
     3    18    16    1
     4    16     1    1
     5     1     2   ar
     6     2     3   ar
     7     3    10    1
     8    10    11   ar
     9    11    12   ar
    10    12    13   ar
    11    13    14   ar
    12    14    15   ar
    13     3     4   ar
    14     4     5   ar
    15     5     6   ar
    16     6     7   ar
    17     7     8   ar
    18     8     9   ar
    19     9     1   ar
    20    15    10   ar
    21     9     4   ar
@<TRIPOS>MOLECULE
*****
 19 21 0 0 0
SMALL
GASTEIGER

@<TRIPOS>ATOM
      1 N         138.4217  140.6294  164.0166 N.ar    1  UNL1       -0.3248
      2 C         138.7727  141.0114  165.4240 C.ar    1  UNL1        0.0759
      3 C         139.7950  140.0361  165.9276 C.ar    1  UNL1        0.0188
      4 C         140.0758  139.0514  164.8315 C.ar    1  UNL1        0.0203
      5 C         140.9947  137.8682  164.7563 C.ar    1  UNL1        0.0222
      6 C         141.0648  137.0517  163.5000 C.ar    1  UNL1        0.0990
      7 N         140.2159  137.4184  162.3189 N.ar    1  UNL1       -0.2408
      8 C         139.2971  138.6016  162.3941 C.ar    1  UNL1        0.1160
      9 C         139.2270  139.4180  163.6504 C.ar    1  UNL1        0.0794
     10 C         140.4259  140.0441  167.2885 C.ar    1  UNL1        0.0046
     11 C         139.5626  140.0526  168.5153 C.ar    1  UNL1        0.0207
     12 C         140.1935  140.0606  169.8762 C.ar    1  UNL1        0.0989
     13 N         141.6875  140.0601  170.0104 N.ar    1  UNL1       -0.2423
     14 C         142.5506  140.0517  168.7836 C.ar    1  UNL1        0.0989
     15 C         141.9198  140.0436  167.4227 C.ar    1  UNL1        0.0207
     16 C         137.4379  141.3349  163.1308 C.3     1  UNL1        0.1060
     17 C         138.3691  142.5054  161.0064 C.3     1  UNL1        0.0020
     18 C         137.8420  142.5860  162.4084 C.3     1  UNL1        0.0226
     19 C         137.7188  143.9175  163.0881 C.3     1  UNL1        0.0020
@<TRIPOS>BOND
     1    17    18    1
     2    18    19    1
     3    18    16    1
     4    16     1    1
     5     1     2   ar
     6     2     3   ar
     7     3    10    1
     8    10    11   ar
     9    11    12   ar
    10    12    13   ar
    11    13    14   ar
    12    14    15   ar
    13     3     4   ar
    14     4     5   ar
    15     5     6   ar
    16     6     7   ar
    17     7     8   ar
    18     8     9   ar
    19     9     1   ar
    20    15    10   ar
    21     9     4   ar
@<TRIPOS>MOLECULE
*****
 19 21 0 0 0
SMALL
GASTEIGER

@<TRIPOS>ATOM
      1 N         140.1940  142.6473  164.2255 N.ar    1  UNL1       -0.3248
      2 C         140.9157  143.2553  165.3915 C.ar    1  UNL1        0.0759
      3 C         140.7783  142.3233  166.5588 C.ar    1  UNL1        0.0188
      4 C         139.9717  141.1394  166.1142 C.ar    1  UNL1        0.0203
      5 C         139.5193  139.9049  166.8362 C.ar    1  UNL1        0.0222
      6 C         138.7059  138.8706  166.1162 C.ar    1  UNL1        0.0990
      7 N         138.3447  139.0708  164.6742 N.ar    1  UNL1       -0.2408
      8 C         138.7970  140.3053  163.9522 C.ar    1  UNL1        0.1160
      9 C         139.6105  141.3396  164.6722 C.ar    1  UNL1        0.0794
     10 C         141.3476  142.5376  167.9299 C.ar    1  UNL1        0.0046
     11 C         142.7693  142.1568  168.2196 C.ar    1  UNL1        0.0207
     12 C         143.3386  142.3711  169.5908 C.ar    1  UNL1        0.0989
     13 N         142.4863  142.9663  170.6721 N.ar    1  UNL1       -0.2423
     14 C         141.0647  143.3471  170.3824 C.ar    1  UNL1        0.0989
     15 C         140.4954  143.1327  169.0112 C.ar    1  UNL1        0.0207
     16 C         140.0763  143.2425  162.8537 C.3     1  UNL1        0.1060
     17 C         137.7073  144.2954  163.0258 C.3     1  UNL1        0.0020
     18 C         139.1461  144.3945  162.6132 C.3     1  UNL1        0.0226
     19 C         139.6546  145.6454  161.9601 C.3     1  UNL1        0.0020
@<TRIPOS>BOND
     1    17    18    1
     2    18    19    1
     3    18    16    1
     4    16     1    1
     5     1     2   ar
     6     2     3   ar
     7     3    10    1
     8    10    11   ar
     9    11    12   ar
    10    12    13   ar
    11    13    14   ar
    12    14    15   ar
    13     3     4   ar
    14     4     5   ar
    15     5     6   ar
    16     6     7   ar
    17     7     8   ar
    18     8     9   ar
    19     9     1   ar
    20    15    10   ar
    21     9     4   ar
@<TRIPOS>MOLECULE
*****
 19 21 0 0 0
SMALL
GASTEIGER

@<TRIPOS>ATOM
      1 N         140.7914  140.6341  164.3891 N.ar    1  UNL1       -0.3248
      2 C         141.3867  140.6738  165.7654 C.ar    1  UNL1        0.0759
      3 C         141.0003  141.9768  166.4001 C.ar    1  UNL1        0.0188
      4 C         140.1662  142.7424  165.4161 C.ar    1  UNL1        0.0203
      5 C         139.5076  144.0879  165.4912 C.ar    1  UNL1        0.0222
      6 C         138.7198  144.6036  164.3235 C.ar    1  UNL1        0.0990
      7 N         138.5908  143.7737  163.0807 N.ar    1  UNL1       -0.2408
      8 C         139.2494  142.4282  163.0055 C.ar    1  UNL1        0.1160
      9 C         140.0371  141.9125  164.1732 C.ar    1  UNL1        0.0794
     10 C         141.3811  142.4341  167.7770 C.ar    1  UNL1        0.0046
     11 C         142.7703  142.1942  168.2895 C.ar    1  UNL1        0.0207
     12 C         143.1511  142.6514  169.6665 C.ar    1  UNL1        0.0989
     13 N         142.1427  143.3485  170.5309 N.ar    1  UNL1       -0.2423
     14 C         140.7536  143.5884  170.0184 C.ar    1  UNL1        0.0989
     15 C         140.3728  143.1311  168.6414 C.ar    1  UNL1        0.0207
     16 C         140.9267  139.5128  163.4020 C.3     1  UNL1        0.1060
     17 C         138.8102  138.0065  163.4478 C.3     1  UNL1        0.0020
     18 C         140.2812  138.1874  163.6794 C.3     1  UNL1        0.0226
     19 C         141.1066  137.0430  164.1884 C.3     1  UNL1        0.0020
@<TRIPOS>BOND
     1    17    18    1
     2    18    19    1
     3    18    16    1
     4    16     1    1
     5     1     2   ar
     6     2     3   ar
     7     3    10    1
     8    10    11   ar
     9    11    12   ar
    10    12    13   ar
    11    13    14   ar
    12    14    15   ar
    13     3     4   ar
    14     4     5   ar
    15     5     6   ar
    16     6     7   ar
    17     7     8   ar
    18     8     9   ar
    19     9     1   ar
    20    15    10   ar
    21     9     4   ar
@<TRIPOS>MOLECULE
*****
 19 21 0 0 0
SMALL
GASTEIGER

@<TRIPOS>ATOM
      1 N         141.3037  142.4540  164.2389 N.ar    1  UNL1       -0.3248
      2 C         140.5508  142.7918  165.4916 C.ar    1  UNL1        0.0759
      3 C         140.9267  141.7898  166.5426 C.ar    1  UNL1        0.0188
      4 C         141.9118  140.8328  165.9396 C.ar    1  UNL1        0.0203
      5 C         142.6268  139.6406  166.5030 C.ar    1  UNL1        0.0222
      6 C         143.5747  138.8589  165.6427 C.ar    1  UNL1        0.0990
      7 N         143.8077  139.2694  164.2189 N.ar    1  UNL1       -0.2408
      8 C         143.0928  140.4616  163.6554 C.ar    1  UNL1        0.1160
      9 C         142.1448  141.2433  164.5158 C.ar    1  UNL1        0.0794
     10 C         140.4084  141.7516  167.9498 C.ar    1  UNL1        0.0046
     11 C         140.5852  142.9409  168.8467 C.ar    1  UNL1        0.0207
     12 C         140.0669  142.9026  170.2538 C.ar    1  UNL1        0.0989
     13 N         139.3719  141.6751  170.7640 N.ar    1  UNL1       -0.2423
     14 C         139.1952  140.4859  169.8671 C.ar    1  UNL1        0.0989
     15 C         139.7135  140.5242  168.4600 C.ar    1  UNL1        0.0207
     16 C         141.2286  143.1966  162.9378 C.3     1  UNL1        0.1060
     17 C         142.6497  145.2562  163.6369 C.3     1  UNL1        0.0020
     18 C         141.4776  144.6754  162.9027 C.3     1  UNL1        0.0226
     19 C         140.5546  145.5734  162.1335 C.3     1  UNL1        0.0020
@<TRIPOS>BOND
     1    17    18    1
     2    18    19    1
     3    18    16    1
     4    16     1    1
     5     1     2   ar
     6     2     3   ar
     7     3    10    1
     8    10    11   ar
     9    11    12   ar
    10    12    13   ar
    11    13    14   ar
    12    14    15   ar
    13     3     4   ar
    14     4     5   ar
    15     5     6   ar
    16     6     7   ar
    17     7     8   ar
    18     8     9   ar
    19     9     1   ar
    20    15    10   ar
    21     9     4   ar
