@<TRIPOS>MOLECULE
*****
 35 38 0 0 0
SMALL
GASTEIGER

@<TRIPOS>ATOM
      1 C         142.6635  138.7219  162.0957 C.ar    1  UNL1        0.0393
      2 C         143.6702  138.7845  163.2060 C.ar    1  UNL1        0.0779
      3 N         142.9662  138.4556  164.4890 N.ar    1  UNL1       -0.3177
      4 C         141.5244  138.1896  164.1717 C.ar    1  UNL1        0.0604
      5 C         140.3578  137.8188  165.0385 C.ar    1  UNL1        0.0172
      6 C         139.0041  137.6126  164.4262 C.ar    1  UNL1        0.0015
      7 C         138.8171  137.7772  162.9470 C.ar    1  UNL1        0.0001
      8 C         139.9837  138.1480  162.0802 C.ar    1  UNL1        0.0015
      9 C         141.3374  138.3542  162.6925 C.ar    1  UNL1        0.0188
     10 N         142.7104  137.8959  159.6328 N.2     1  UNL1       -0.1636
     11 C         142.9353  138.9813  160.6435 C.2     1  UNL1        0.1204
     12 N         142.9822  138.1554  158.1806 N.pl3   1  UNL1       -0.1361
     13 H         143.2593  139.0523  157.8842 H       1  UNL1        0.1966
     14 S         142.8316  137.0481  157.1800 S.O2    1  UNL1        0.0877
     15 O         143.3581  136.0676  158.1857 O.2     1  UNL1       -0.1487
     16 O         142.3051  138.0287  156.1742 O.2     1  UNL1       -0.1487
     17 C         142.2293  132.6191  153.1773 C.3     1  UNL1        0.0310
     18 C         142.3799  133.7263  154.1780 C.ar    1  UNL1       -0.0218
     19 C         142.2782  135.1560  153.7356 C.ar    1  UNL1       -0.0029
     20 C         142.4288  136.2632  154.7362 C.ar    1  UNL1        0.0199
     21 C         142.6810  135.9409  156.1793 C.ar    1  UNL1        0.1266
     22 C         142.7827  134.5112  156.6217 C.ar    1  UNL1        0.0199
     23 C         142.6321  133.4039  155.6210 C.ar    1  UNL1       -0.0029
     24 C         143.5937  138.4020  165.8504 C.3     1  UNL1        0.1920
     25 C         143.1034  139.3107  166.9385 C.2     1  UNL1        0.2492
     26 O         142.9562  138.7928  168.3386 O.2     1  UNL1       -0.2727
     27 N         142.7603  140.7372  166.6266 N.am    1  UNL1       -0.2817
     28 H         142.8569  141.0771  165.7077 H       1  UNL1        0.1549
     29 C         142.2700  141.6458  167.7147 C.ar    1  UNL1        0.0610
     30 C         143.1813  142.0217  168.8453 C.ar    1  UNL1        0.0155
     31 C         142.6909  142.9303  169.9334 C.ar    1  UNL1        0.0013
     32 C         141.2893  143.4630  169.8910 C.ar    1  UNL1        0.0009
     33 C         140.3781  143.0871  168.7604 C.ar    1  UNL1        0.0126
     34 C         140.8684  142.1784  167.6722 C.ar    1  UNL1        0.0711
     35 CL        139.9572  141.8025  166.5416 Cl      1  UNL1       -0.0810
@<TRIPOS>BOND
     1    17    18    1
     2    18    19   ar
     3    19    20   ar
     4    20    21   ar
     5    21    14    1
     6    14    15    2
     7    14    16    2
     8    14    12    1
     9    12    10    1
    10    10    11    2
    11    11     1    1
    12     1     2   ar
    13     2     3   ar
    14     3    24    1
    15    24    25    1
    16    25    26    2
    17    25    27   am
    18    27    29    1
    19    29    30   ar
    20    30    31   ar
    21    31    32   ar
    22    32    33   ar
    23    33    34   ar
    24    34    35    1
    25     3     4   ar
    26     4     5   ar
    27     5     6   ar
    28     6     7   ar
    29     7     8   ar
    30     8     9   ar
    31    21    22   ar
    32    22    23   ar
    33    23    18   ar
    34     9     1   ar
    35    34    29   ar
    36     9     4   ar
    37    12    13    1
    38    27    28    1
@<TRIPOS>MOLECULE
*****
 35 38 0 0 0
SMALL
GASTEIGER

@<TRIPOS>ATOM
      1 C         142.8222  139.2635  161.4163 C.ar    1  UNL1        0.0393
      2 C         142.2839  138.3365  162.4656 C.ar    1  UNL1        0.0779
      3 N         142.9048  138.7121  163.7784 N.ar    1  UNL1       -0.3177
      4 C         143.8267  139.8712  163.5405 C.ar    1  UNL1        0.0604
      5 C         144.7061  140.6604  164.4645 C.ar    1  UNL1        0.0172
      6 C         145.5344  141.7903  163.9287 C.ar    1  UNL1        0.0015
      7 C         145.4833  142.1310  162.4688 C.ar    1  UNL1        0.0001
      8 C         144.6040  141.3419  161.5447 C.ar    1  UNL1        0.0015
      9 C         143.7757  140.2120  162.0806 C.ar    1  UNL1        0.0188
     10 N         143.4516  138.7178  158.9553 N.2     1  UNL1       -0.1636
     11 C         142.4690  139.2452  159.9585 C.2     1  UNL1        0.1204
     12 N         143.0984  138.6995  157.4976 N.pl3   1  UNL1       -0.1361
     13 H         142.9298  139.5444  157.0213 H       1  UNL1        0.1966
     14 S         143.0021  137.3938  156.7656 S.O2    1  UNL1        0.0877
     15 O         144.3642  137.6214  156.1801 O.2     1  UNL1       -0.1487
     16 O         141.6399  137.1661  157.3512 O.2     1  UNL1       -0.1487
     17 C         142.6164  132.1708  153.8378 C.3     1  UNL1        0.0310
     18 C         142.7128  133.4765  154.5698 C.ar    1  UNL1       -0.0218
     19 C         143.1105  133.4981  156.0159 C.ar    1  UNL1       -0.0029
     20 C         143.2070  134.8038  156.7479 C.ar    1  UNL1        0.0199
     21 C         142.9057  136.0880  156.0337 C.ar    1  UNL1        0.1266
     22 C         142.5080  136.0665  154.5876 C.ar    1  UNL1        0.0199
     23 C         142.4115  134.7607  153.8555 C.ar    1  UNL1       -0.0029
     24 C         142.6487  138.0457  165.0976 C.3     1  UNL1        0.1920
     25 C         142.2967  138.8716  166.2993 C.2     1  UNL1        0.2492
     26 O         143.1880  138.8583  167.5057 O.2     1  UNL1       -0.2727
     27 N         141.0534  139.7108  166.2946 N.am    1  UNL1       -0.2817
     28 H         140.4684  139.7195  165.5029 H       1  UNL1        0.1549
     29 C         140.7015  140.5366  167.4963 C.ar    1  UNL1        0.0610
     30 C         139.7521  139.9977  168.5249 C.ar    1  UNL1        0.0155
     31 C         139.4003  140.8236  169.7266 C.ar    1  UNL1        0.0013
     32 C         139.9979  142.1885  169.8998 C.ar    1  UNL1        0.0009
     33 C         140.9473  142.7274  168.8712 C.ar    1  UNL1        0.0126
     34 C         141.2992  141.9015  167.6694 C.ar    1  UNL1        0.0711
     35 CL        142.2486  142.4404  166.6408 Cl      1  UNL1       -0.0810
@<TRIPOS>BOND
     1    17    18    1
     2    18    19   ar
     3    19    20   ar
     4    20    21   ar
     5    21    14    1
     6    14    15    2
     7    14    16    2
     8    14    12    1
     9    12    10    1
    10    10    11    2
    11    11     1    1
    12     1     2   ar
    13     2     3   ar
    14     3    24    1
    15    24    25    1
    16    25    26    2
    17    25    27   am
    18    27    29    1
    19    29    30   ar
    20    30    31   ar
    21    31    32   ar
    22    32    33   ar
    23    33    34   ar
    24    34    35    1
    25     3     4   ar
    26     4     5   ar
    27     5     6   ar
    28     6     7   ar
    29     7     8   ar
    30     8     9   ar
    31    21    22   ar
    32    22    23   ar
    33    23    18   ar
    34     9     1   ar
    35    34    29   ar
    36     9     4   ar
    37    12    13    1
    38    27    28    1
@<TRIPOS>MOLECULE
*****
 35 38 0 0 0
SMALL
GASTEIGER

@<TRIPOS>ATOM
      1 C         142.3243  138.6623  161.4388 C.ar    1  UNL1        0.0393
      2 C         143.5092  139.0136  162.2889 C.ar    1  UNL1        0.0779
      3 N         143.1026  138.8840  163.7269 N.ar    1  UNL1       -0.3177
      4 C         141.6665  138.4526  163.7655 C.ar    1  UNL1        0.0604
      5 C         140.7347  138.1668  164.9057 C.ar    1  UNL1        0.0172
      6 C         139.3219  137.7440  164.6317 C.ar    1  UNL1        0.0015
      7 C         138.8408  137.6070  163.2176 C.ar    1  UNL1        0.0001
      8 C         139.7726  137.8928  162.0774 C.ar    1  UNL1        0.0015
      9 C         141.1855  138.3155  162.3514 C.ar    1  UNL1        0.0188
     10 N         143.5102  139.0271  159.1560 N.2     1  UNL1       -0.1636
     11 C         142.2851  138.6584  159.9393 C.2     1  UNL1        0.1204
     12 N         143.4710  139.0232  157.6565 N.pl3   1  UNL1       -0.1361
     13 H         142.8177  138.4594  157.1826 H       1  UNL1        0.1966
     14 S         144.4272  139.8783  156.8792 S.O2    1  UNL1        0.0877
     15 O         144.1433  141.0303  157.7969 O.2     1  UNL1       -0.1487
     16 O         144.7112  138.7262  155.9614 O.2     1  UNL1       -0.1487
     17 C         148.2523  143.2986  153.7694 C.3     1  UNL1        0.0310
     18 C         147.2961  142.4435  154.5469 C.ar    1  UNL1       -0.0218
     19 C         146.5487  141.3392  153.8600 C.ar    1  UNL1       -0.0029
     20 C         145.5925  140.4841  154.6374 C.ar    1  UNL1        0.0199
     21 C         145.3835  140.7334  156.1017 C.ar    1  UNL1        0.1266
     22 C         146.1308  141.8377  156.7886 C.ar    1  UNL1        0.0199
     23 C         147.0872  142.6929  156.0112 C.ar    1  UNL1       -0.0029
     24 C         143.9784  139.1407  164.9173 C.3     1  UNL1        0.1920
     25 C         143.4042  139.7800  166.1469 C.2     1  UNL1        0.2492
     26 O         143.1852  138.9620  167.3850 O.2     1  UNL1       -0.2727
     27 N         143.0491  141.2374  166.1384 N.am    1  UNL1       -0.2817
     28 H         143.1929  141.7743  165.3258 H       1  UNL1        0.1549
     29 C         142.4750  141.8766  167.3679 C.ar    1  UNL1        0.0610
     30 C         143.3658  142.2001  168.5306 C.ar    1  UNL1        0.0155
     31 C         142.7916  142.8393  169.7601 C.ar    1  UNL1        0.0013
     32 C         141.3267  143.1550  169.8270 C.ar    1  UNL1        0.0009
     33 C         140.4360  142.8315  168.6643 C.ar    1  UNL1        0.0126
     34 C         141.0102  142.1922  167.4347 C.ar    1  UNL1        0.0711
     35 CL        140.1194  141.8687  166.2719 Cl      1  UNL1       -0.0810
@<TRIPOS>BOND
     1    17    18    1
     2    18    19   ar
     3    19    20   ar
     4    20    21   ar
     5    21    14    1
     6    14    15    2
     7    14    16    2
     8    14    12    1
     9    12    10    1
    10    10    11    2
    11    11     1    1
    12     1     2   ar
    13     2     3   ar
    14     3    24    1
    15    24    25    1
    16    25    26    2
    17    25    27   am
    18    27    29    1
    19    29    30   ar
    20    30    31   ar
    21    31    32   ar
    22    32    33   ar
    23    33    34   ar
    24    34    35    1
    25     3     4   ar
    26     4     5   ar
    27     5     6   ar
    28     6     7   ar
    29     7     8   ar
    30     8     9   ar
    31    21    22   ar
    32    22    23   ar
    33    23    18   ar
    34     9     1   ar
    35    34    29   ar
    36     9     4   ar
    37    12    13    1
    38    27    28    1
@<TRIPOS>MOLECULE
*****
 35 38 0 0 0
SMALL
GASTEIGER

@<TRIPOS>ATOM
      1 C         138.7893  142.7121  157.6025 C.ar    1  UNL1        0.0393
      2 C         139.1935  143.0439  159.0084 C.ar    1  UNL1        0.0779
      3 N         139.9317  144.3494  158.9825 N.ar    1  UNL1       -0.3177
      4 C         139.9838  144.8244  157.5606 C.ar    1  UNL1        0.0604
      5 C         140.5828  146.0476  156.9324 C.ar    1  UNL1        0.0172
      6 C         140.4759  146.2589  155.4512 C.ar    1  UNL1        0.0015
      7 C         139.7698  145.2469  154.5983 C.ar    1  UNL1        0.0001
      8 C         139.1707  144.0237  155.2266 C.ar    1  UNL1        0.0015
      9 C         139.2777  143.8125  156.7077 C.ar    1  UNL1        0.0188
     10 N         136.6769  141.6388  156.5365 N.2     1  UNL1       -0.1636
     11 C         138.0300  141.4937  157.1677 C.2     1  UNL1        0.1204
     12 N         135.9176  140.4205  156.1017 N.pl3   1  UNL1       -0.1361
     13 H         136.4029  139.6275  155.7778 H       1  UNL1        0.1966
     14 S         134.4188  140.4103  156.1604 S.O2    1  UNL1        0.0877
     15 O         134.3619  141.1044  154.8319 O.2     1  UNL1       -0.1487
     16 O         134.4756  139.7162  157.4890 O.2     1  UNL1       -0.1487
     17 C         128.4235  140.3696  156.3957 C.3     1  UNL1        0.0310
     18 C         129.9223  140.3797  156.3369 C.ar    1  UNL1       -0.0218
     19 C         130.6320  141.3751  155.4677 C.ar    1  UNL1       -0.0029
     20 C         132.1308  141.3854  155.4089 C.ar    1  UNL1        0.0199
     21 C         132.9200  140.4002  156.2192 C.ar    1  UNL1        0.1266
     22 C         132.2103  139.4048  157.0884 C.ar    1  UNL1        0.0199
     23 C         130.7114  139.3945  157.1473 C.ar    1  UNL1       -0.0029
     24 C         140.5154  145.0559  160.1700 C.3     1  UNL1        0.1920
     25 C         141.3433  144.2952  161.1631 C.2     1  UNL1        0.2492
     26 O         140.6949  143.2850  162.0626 O.2     1  UNL1       -0.2727
     27 N         142.8194  144.5447  161.2565 N.am    1  UNL1       -0.2817
     28 H         143.2450  145.2077  160.6662 H       1  UNL1        0.1549
     29 C         143.6471  143.7840  162.2496 C.ar    1  UNL1        0.0610
     30 C         144.5005  142.6379  161.7933 C.ar    1  UNL1        0.0155
     31 C         145.3282  141.8772  162.7864 C.ar    1  UNL1        0.0013
     32 C         145.3026  142.2626  164.2359 C.ar    1  UNL1        0.0009
     33 C         144.4492  143.4087  164.6922 C.ar    1  UNL1        0.0126
     34 C         143.6215  144.1695  163.6990 C.ar    1  UNL1        0.0711
     35 CL        142.7681  145.3156  164.1553 Cl      1  UNL1       -0.0810
@<TRIPOS>BOND
     1    17    18    1
     2    18    19   ar
     3    19    20   ar
     4    20    21   ar
     5    21    14    1
     6    14    15    2
     7    14    16    2
     8    14    12    1
     9    12    10    1
    10    10    11    2
    11    11     1    1
    12     1     2   ar
    13     2     3   ar
    14     3    24    1
    15    24    25    1
    16    25    26    2
    17    25    27   am
    18    27    29    1
    19    29    30   ar
    20    30    31   ar
    21    31    32   ar
    22    32    33   ar
    23    33    34   ar
    24    34    35    1
    25     3     4   ar
    26     4     5   ar
    27     5     6   ar
    28     6     7   ar
    29     7     8   ar
    30     8     9   ar
    31    21    22   ar
    32    22    23   ar
    33    23    18   ar
    34     9     1   ar
    35    34    29   ar
    36     9     4   ar
    37    12    13    1
    38    27    28    1
@<TRIPOS>MOLECULE
*****
 35 38 0 0 0
SMALL
GASTEIGER

@<TRIPOS>ATOM
      1 C         144.0330  140.5552  160.8581 C.ar    1  UNL1        0.0393
      2 C         144.0719  139.3701  161.7768 C.ar    1  UNL1        0.0779
      3 N         144.1167  139.8784  163.1873 N.ar    1  UNL1       -0.3177
      4 C         144.1055  141.3776  163.1404 C.ar    1  UNL1        0.0604
      5 C         144.1357  142.4159  164.2225 C.ar    1  UNL1        0.0172
      6 C         144.1142  143.8725  163.8650 C.ar    1  UNL1        0.0015
      7 C         144.0624  144.2908  162.4255 C.ar    1  UNL1        0.0001
      8 C         144.0322  143.2525  161.3434 C.ar    1  UNL1        0.0015
      9 C         144.0538  141.7959  161.7008 C.ar    1  UNL1        0.0188
     10 N         143.6819  139.2155  158.6598 N.2     1  UNL1       -0.1636
     11 C         143.9822  140.5079  159.3597 C.2     1  UNL1        0.1204
     12 N         143.6312  139.1683  157.1614 N.pl3   1  UNL1       -0.1361
     13 H         143.7540  139.9933  156.6384 H       1  UNL1        0.1966
     14 S         143.3932  137.8640  156.4599 S.O2    1  UNL1        0.0877
     15 O         144.6320  138.0780  155.6417 O.2     1  UNL1       -0.1487
     16 O         142.1544  137.6499  157.2783 O.2     1  UNL1       -0.1487
     17 C         142.4412  132.6466  153.6540 C.3     1  UNL1        0.0310
     18 C         142.6792  133.9509  154.3555 C.ar    1  UNL1       -0.0218
     19 C         143.3396  133.9687  155.7021 C.ar    1  UNL1       -0.0029
     20 C         143.5777  135.2730  156.4036 C.ar    1  UNL1        0.0199
     21 C         143.1552  136.5596  155.7585 C.ar    1  UNL1        0.1266
     22 C         142.4948  136.5419  154.4118 C.ar    1  UNL1        0.0199
     23 C         142.2568  135.2375  153.7103 C.ar    1  UNL1       -0.0029
     24 C         144.1644  139.0355  164.4272 C.3     1  UNL1        0.1920
     25 C         142.9038  138.7482  165.1877 C.2     1  UNL1        0.2492
     26 O         142.9741  138.1004  166.5388 O.2     1  UNL1       -0.2727
     27 N         141.5729  139.1086  164.5972 N.am    1  UNL1       -0.2817
     28 H         141.5267  139.5338  163.7104 H       1  UNL1        0.1549
     29 C         140.3124  138.8213  165.3577 C.ar    1  UNL1        0.0610
     30 C         139.4935  137.6102  165.0223 C.ar    1  UNL1        0.0155
     31 C         138.2330  137.3229  165.7829 C.ar    1  UNL1        0.0013
     32 C         137.7913  138.2468  166.8790 C.ar    1  UNL1        0.0009
     33 C         138.6101  139.4580  167.2144 C.ar    1  UNL1        0.0126
     34 C         139.8707  139.7453  166.4538 C.ar    1  UNL1        0.0711
     35 CL        140.6896  140.9564  166.7892 Cl      1  UNL1       -0.0810
@<TRIPOS>BOND
     1    17    18    1
     2    18    19   ar
     3    19    20   ar
     4    20    21   ar
     5    21    14    1
     6    14    15    2
     7    14    16    2
     8    14    12    1
     9    12    10    1
    10    10    11    2
    11    11     1    1
    12     1     2   ar
    13     2     3   ar
    14     3    24    1
    15    24    25    1
    16    25    26    2
    17    25    27   am
    18    27    29    1
    19    29    30   ar
    20    30    31   ar
    21    31    32   ar
    22    32    33   ar
    23    33    34   ar
    24    34    35    1
    25     3     4   ar
    26     4     5   ar
    27     5     6   ar
    28     6     7   ar
    29     7     8   ar
    30     8     9   ar
    31    21    22   ar
    32    22    23   ar
    33    23    18   ar
    34     9     1   ar
    35    34    29   ar
    36     9     4   ar
    37    12    13    1
    38    27    28    1
@<TRIPOS>MOLECULE
*****
 35 38 0 0 0
SMALL
GASTEIGER

@<TRIPOS>ATOM
      1 C         138.3439  142.5739  157.9236 C.ar    1  UNL1        0.0393
      2 C         138.1803  142.3033  159.3898 C.ar    1  UNL1        0.0779
      3 N         139.1617  143.1614  160.1318 N.ar    1  UNL1       -0.3177
      4 C         139.9319  143.9623  159.1241 C.ar    1  UNL1        0.0604
      5 C         141.0280  144.9753  159.2729 C.ar    1  UNL1        0.0172
      6 C         141.6188  145.6252  158.0569 C.ar    1  UNL1        0.0015
      7 C         141.1133  145.2620  156.6921 C.ar    1  UNL1        0.0001
      8 C         140.0171  144.2490  156.5433 C.ar    1  UNL1        0.0015
      9 C         139.4264  143.5992  157.7593 C.ar    1  UNL1        0.0188
     10 N         136.6876  140.7477  157.1039 N.2     1  UNL1       -0.1636
     11 C         137.5623  141.9318  156.8159 C.2     1  UNL1        0.1204
     12 N         135.9059  140.1056  155.9962 N.pl3   1  UNL1       -0.1361
     13 H         136.3769  139.6904  155.2379 H       1  UNL1        0.1966
     14 S         134.4068  140.0963  156.0441 S.O2    1  UNL1        0.0877
     15 O         134.4551  139.6557  157.4771 O.2     1  UNL1       -0.1487
     16 O         134.3584  140.5370  154.6110 O.2     1  UNL1       -0.1487
     17 C         128.4099  140.0590  156.2350 C.3     1  UNL1        0.0310
     18 C         129.9091  140.0683  156.1873 C.ar    1  UNL1       -0.0218
     19 C         130.6342  141.2541  155.6232 C.ar    1  UNL1       -0.0029
     20 C         132.1333  141.2635  155.5754 C.ar    1  UNL1        0.0199
     21 C         132.9076  140.0870  156.0918 C.ar    1  UNL1        0.1266
     22 C         132.1825  138.9012  156.6559 C.ar    1  UNL1        0.0199
     23 C         130.6832  138.8918  156.7037 C.ar    1  UNL1       -0.0029
     24 C         139.3415  143.2101  161.6202 C.3     1  UNL1        0.1920
     25 C         138.8554  142.0750  162.4719 C.2     1  UNL1        0.2492
     26 O         137.3894  141.7659  162.5442 O.2     1  UNL1       -0.2727
     27 N         139.8354  141.2490  163.2513 N.am    1  UNL1       -0.2817
     28 H         140.7976  141.4518  163.2038 H       1  UNL1        0.1549
     29 C         139.3493  140.1139  164.1029 C.ar    1  UNL1        0.0610
     30 C         138.7650  140.3888  165.4568 C.ar    1  UNL1        0.0155
     31 C         138.2789  139.2537  166.3084 C.ar    1  UNL1        0.0013
     32 C         138.3770  137.8437  165.8061 C.ar    1  UNL1        0.0009
     33 C         138.9613  137.5688  164.4522 C.ar    1  UNL1        0.0126
     34 C         139.4474  138.7040  163.6006 C.ar    1  UNL1        0.0711
     35 CL        140.0316  138.4291  162.2467 Cl      1  UNL1       -0.0810
@<TRIPOS>BOND
     1    17    18    1
     2    18    19   ar
     3    19    20   ar
     4    20    21   ar
     5    21    14    1
     6    14    15    2
     7    14    16    2
     8    14    12    1
     9    12    10    1
    10    10    11    2
    11    11     1    1
    12     1     2   ar
    13     2     3   ar
    14     3    24    1
    15    24    25    1
    16    25    26    2
    17    25    27   am
    18    27    29    1
    19    29    30   ar
    20    30    31   ar
    21    31    32   ar
    22    32    33   ar
    23    33    34   ar
    24    34    35    1
    25     3     4   ar
    26     4     5   ar
    27     5     6   ar
    28     6     7   ar
    29     7     8   ar
    30     8     9   ar
    31    21    22   ar
    32    22    23   ar
    33    23    18   ar
    34     9     1   ar
    35    34    29   ar
    36     9     4   ar
    37    12    13    1
    38    27    28    1
@<TRIPOS>MOLECULE
*****
 35 38 0 0 0
SMALL
GASTEIGER

@<TRIPOS>ATOM
      1 C         139.3986  139.5418  160.8875 C.ar    1  UNL1        0.0393
      2 C         139.5538  138.4745  161.9300 C.ar    1  UNL1        0.0779
      3 N         139.0696  139.0291  163.2368 N.ar    1  UNL1       -0.3177
      4 C         138.6151  140.4392  163.0020 C.ar    1  UNL1        0.0604
      5 C         138.0423  141.4756  163.9227 C.ar    1  UNL1        0.0172
      6 C         137.6729  142.8288  163.3915 C.ar    1  UNL1        0.0015
      7 C         137.8763  143.1457  161.9395 C.ar    1  UNL1        0.0001
      8 C         138.4491  142.1093  161.0188 C.ar    1  UNL1        0.0015
      9 C         138.8184  140.7560  161.5500 C.ar    1  UNL1        0.0188
     10 N         141.0822  138.8285  159.0416 N.2     1  UNL1       -0.1636
     11 C         139.7601  139.4168  159.4371 C.2     1  UNL1        0.1204
     12 N         141.4437  138.7035  157.5912 N.pl3   1  UNL1       -0.1361
     13 H         141.4478  139.5013  157.0144 H       1  UNL1        0.1966
     14 S         141.7989  137.3629  157.0197 S.O2    1  UNL1        0.0877
     15 O         140.3493  137.0982  156.7394 O.2     1  UNL1       -0.1487
     16 O         143.2486  137.6277  157.3000 O.2     1  UNL1       -0.1487
     17 C         143.2201  132.0006  154.7337 C.3     1  UNL1        0.0310
     18 C         142.8648  133.3412  155.3052 C.ar    1  UNL1       -0.0218
     19 C         143.7529  133.9776  156.3329 C.ar    1  UNL1       -0.0029
     20 C         143.3976  135.3182  156.9044 C.ar    1  UNL1        0.0199
     21 C         142.1542  136.0224  156.4482 C.ar    1  UNL1        0.1266
     22 C         141.2661  135.3859  155.4205 C.ar    1  UNL1        0.0199
     23 C         141.6214  134.0453  154.8489 C.ar    1  UNL1       -0.0029
     24 C         139.0442  138.3014  164.5482 C.3     1  UNL1        0.1920
     25 C         138.9923  139.0734  165.8334 C.2     1  UNL1        0.2492
     26 O         137.7460  139.0575  166.6680 O.2     1  UNL1       -0.2727
     27 N         140.1866  139.8611  166.2840 N.am    1  UNL1       -0.2817
     28 H         141.0046  139.8715  165.7363 H       1  UNL1        0.1549
     29 C         140.1346  140.6329  167.5691 C.ar    1  UNL1        0.0610
     30 C         139.8367  139.9251  168.8576 C.ar    1  UNL1        0.0155
     31 C         139.7847  140.6971  170.1426 C.ar    1  UNL1        0.0013
     32 C         140.0306  142.1768  170.1393 C.ar    1  UNL1        0.0009
     33 C         140.3284  142.8846  168.8508 C.ar    1  UNL1        0.0126
     34 C         140.3805  142.1126  167.5656 C.ar    1  UNL1        0.0711
     35 CL        140.6783  142.8204  166.2771 Cl      1  UNL1       -0.0810
@<TRIPOS>BOND
     1    17    18    1
     2    18    19   ar
     3    19    20   ar
     4    20    21   ar
     5    21    14    1
     6    14    15    2
     7    14    16    2
     8    14    12    1
     9    12    10    1
    10    10    11    2
    11    11     1    1
    12     1     2   ar
    13     2     3   ar
    14     3    24    1
    15    24    25    1
    16    25    26    2
    17    25    27   am
    18    27    29    1
    19    29    30   ar
    20    30    31   ar
    21    31    32   ar
    22    32    33   ar
    23    33    34   ar
    24    34    35    1
    25     3     4   ar
    26     4     5   ar
    27     5     6   ar
    28     6     7   ar
    29     7     8   ar
    30     8     9   ar
    31    21    22   ar
    32    22    23   ar
    33    23    18   ar
    34     9     1   ar
    35    34    29   ar
    36     9     4   ar
    37    12    13    1
    38    27    28    1
@<TRIPOS>MOLECULE
*****
 35 38 0 0 0
SMALL
GASTEIGER

@<TRIPOS>ATOM
      1 C         142.9835  138.7491  159.8156 C.ar    1  UNL1        0.0393
      2 C         143.1057  138.0494  161.1368 C.ar    1  UNL1        0.0779
      3 N         143.7353  139.0022  162.1093 N.ar    1  UNL1       -0.3177
      4 C         144.0022  140.2907  161.3892 C.ar    1  UNL1        0.0604
      5 C         144.6082  141.5862  161.8412 C.ar    1  UNL1        0.0172
      6 C         144.7496  142.7252  160.8756 C.ar    1  UNL1        0.0015
      7 C         144.2850  142.5688  159.4580 C.ar    1  UNL1        0.0001
      8 C         143.6789  141.2734  159.0060 C.ar    1  UNL1        0.0015
      9 C         143.5375  140.1343  159.9716 C.ar    1  UNL1        0.0188
     10 N         143.2779  137.9830  157.3505 N.2     1  UNL1       -0.1636
     11 C         142.4082  138.1660  158.5590 C.2     1  UNL1        0.1204
     12 N         142.7026  137.3999  156.0938 N.pl3   1  UNL1       -0.1361
     13 H         142.1686  137.9640  155.4889 H       1  UNL1        0.1966
     14 S         142.9409  135.9574  155.7590 S.O2    1  UNL1        0.0877
     15 O         141.5073  135.6475  156.0734 O.2     1  UNL1       -0.1487
     16 O         144.3745  136.2673  155.4445 O.2     1  UNL1       -0.1487
     17 C         143.8946  130.1871  154.4195 C.3     1  UNL1        0.0310
     18 C         143.6562  131.6296  154.7544 C.ar    1  UNL1       -0.0218
     19 C         142.7796  132.4692  153.8730 C.ar    1  UNL1       -0.0029
     20 C         142.5412  133.9118  154.2079 C.ar    1  UNL1        0.0199
     21 C         143.1793  134.5148  155.4241 C.ar    1  UNL1        0.1266
     22 C         144.0559  133.6753  156.3054 C.ar    1  UNL1        0.0199
     23 C         144.2943  132.2326  155.9706 C.ar    1  UNL1       -0.0029
     24 C         144.0439  138.7166  163.5492 C.3     1  UNL1        0.1920
     25 C         142.9356  138.6715  164.5591 C.2     1  UNL1        0.2492
     26 O         143.1859  138.0977  165.9222 O.2     1  UNL1       -0.2727
     27 N         141.5771  139.2003  164.2058 N.am    1  UNL1       -0.2817
     28 H         141.4127  139.5769  163.3112 H       1  UNL1        0.1549
     29 C         140.4689  139.1552  165.2157 C.ar    1  UNL1        0.0610
     30 C         140.5309  140.0244  166.4366 C.ar    1  UNL1        0.0155
     31 C         139.4227  139.9792  167.4465 C.ar    1  UNL1        0.0013
     32 C         138.2524  139.0649  167.2355 C.ar    1  UNL1        0.0009
     33 C         138.1904  138.1957  166.0146 C.ar    1  UNL1        0.0126
     34 C         139.2987  138.2408  165.0047 C.ar    1  UNL1        0.0711
     35 CL        139.2367  137.3716  163.7837 Cl      1  UNL1       -0.0810
@<TRIPOS>BOND
     1    17    18    1
     2    18    19   ar
     3    19    20   ar
     4    20    21   ar
     5    21    14    1
     6    14    15    2
     7    14    16    2
     8    14    12    1
     9    12    10    1
    10    10    11    2
    11    11     1    1
    12     1     2   ar
    13     2     3   ar
    14     3    24    1
    15    24    25    1
    16    25    26    2
    17    25    27   am
    18    27    29    1
    19    29    30   ar
    20    30    31   ar
    21    31    32   ar
    22    32    33   ar
    23    33    34   ar
    24    34    35    1
    25     3     4   ar
    26     4     5   ar
    27     5     6   ar
    28     6     7   ar
    29     7     8   ar
    30     8     9   ar
    31    21    22   ar
    32    22    23   ar
    33    23    18   ar
    34     9     1   ar
    35    34    29   ar
    36     9     4   ar
    37    12    13    1
    38    27    28    1
@<TRIPOS>MOLECULE
*****
 35 38 0 0 0
SMALL
GASTEIGER

@<TRIPOS>ATOM
      1 C         140.8478  144.5051  159.9376 C.ar    1  UNL1        0.0393
      2 C         140.5316  144.9708  161.3280 C.ar    1  UNL1        0.0779
      3 N         141.6616  144.5573  162.2235 N.ar    1  UNL1       -0.3177
      4 C         142.6762  143.8360  161.3866 C.ar    1  UNL1        0.0604
      5 C         143.9931  143.2044  161.7285 C.ar    1  UNL1        0.0172
      6 C         144.8070  142.5406  160.6576 C.ar    1  UNL1        0.0015
      7 C         144.3040  142.5084  159.2448 C.ar    1  UNL1        0.0001
      8 C         142.9871  143.1399  158.9029 C.ar    1  UNL1        0.0015
      9 C         142.1732  143.8037  159.9739 C.ar    1  UNL1        0.0188
     10 N         140.3848  145.7107  157.6832 N.2     1  UNL1       -0.1636
     11 C         139.9893  144.7055  158.7240 C.2     1  UNL1        0.1204
     12 N         139.5263  145.9112  156.4696 N.pl3   1  UNL1       -0.1361
     13 H         139.0505  145.1468  156.0715 H       1  UNL1        0.1966
     14 S         139.3928  147.2763  155.8626 S.O2    1  UNL1        0.0877
     15 O         138.8566  147.8015  157.1614 O.2     1  UNL1       -0.1487
     16 O         139.9291  146.7512  154.5638 O.2     1  UNL1       -0.1487
     17 C         138.8589  152.7370  153.4344 C.3     1  UNL1        0.0310
     18 C         138.9923  151.3719  154.0415 C.ar    1  UNL1       -0.0218
     19 C         139.6341  150.2634  153.2609 C.ar    1  UNL1       -0.0029
     20 C         139.7676  148.8983  153.8678 C.ar    1  UNL1        0.0199
     21 C         139.2593  148.6415  155.2556 C.ar    1  UNL1        0.1266
     22 C         138.6175  149.7499  156.0362 C.ar    1  UNL1        0.0199
     23 C         138.4840  151.1152  155.4292 C.ar    1  UNL1       -0.0029
     24 C         141.7599  144.8190  163.6972 C.3     1  UNL1        0.1920
     25 C         141.6733  143.6794  164.6688 C.2     1  UNL1        0.2492
     26 O         140.3333  143.1756  165.1165 O.2     1  UNL1       -0.2727
     27 N         142.9269  143.0436  165.1927 N.am    1  UNL1       -0.2817
     28 H         143.8064  143.3743  164.8989 H       1  UNL1        0.1549
     29 C         142.8403  141.9041  166.1642 C.ar    1  UNL1        0.0610
     30 C         142.7709  142.1780  167.6374 C.ar    1  UNL1        0.0155
     31 C         142.6843  141.0384  168.6088 C.ar    1  UNL1        0.0013
     32 C         142.6671  139.6248  168.1072 C.ar    1  UNL1        0.0009
     33 C         142.7364  139.3509  166.6341 C.ar    1  UNL1        0.0126
     34 C         142.8230  140.4906  165.6626 C.ar    1  UNL1        0.0711
     35 CL        142.8924  140.2167  164.1894 Cl      1  UNL1       -0.0810
@<TRIPOS>BOND
     1    17    18    1
     2    18    19   ar
     3    19    20   ar
     4    20    21   ar
     5    21    14    1
     6    14    15    2
     7    14    16    2
     8    14    12    1
     9    12    10    1
    10    10    11    2
    11    11     1    1
    12     1     2   ar
    13     2     3   ar
    14     3    24    1
    15    24    25    1
    16    25    26    2
    17    25    27   am
    18    27    29    1
    19    29    30   ar
    20    30    31   ar
    21    31    32   ar
    22    32    33   ar
    23    33    34   ar
    24    34    35    1
    25     3     4   ar
    26     4     5   ar
    27     5     6   ar
    28     6     7   ar
    29     7     8   ar
    30     8     9   ar
    31    21    22   ar
    32    22    23   ar
    33    23    18   ar
    34     9     1   ar
    35    34    29   ar
    36     9     4   ar
    37    12    13    1
    38    27    28    1
