@<TRIPOS>MOLECULE
*****
 51 58 0 0 0
SMALL
GASTEIGER

@<TRIPOS>ATOM
      1 C         139.3345  142.1383  164.8258 C.ar    1  UNL1        0.1335
      2 C         138.5033  143.3388  164.4825 C.ar    1  UNL1        0.0360
      3 C         138.1824  143.6438  163.0493 C.ar    1  UNL1        0.0251
      4 C         138.6927  142.7483  161.9595 C.ar    1  UNL1        0.1171
      5 N         138.3718  143.0534  160.5263 N.ar    1  UNL1       -0.2407
      6 C         138.8821  142.1579  159.4365 C.ar    1  UNL1        0.0989
      7 C         139.7133  140.9573  159.7799 C.ar    1  UNL1        0.1005
      8 N         140.0342  140.6524  161.2131 N.ar    1  UNL1       -0.2237
      9 C         139.5239  141.5478  162.3029 C.ar    1  UNL1        0.1814
     10 N         139.8448  141.2428  163.7360 N.ar    1  UNL1       -0.2104
     11 N         140.2972  141.2233  169.1254 N.3     1  UNL1       -0.2677
     12 C         139.6765  140.1707  168.2554 C.3     1  UNL1        0.0939
     13 C         139.3555  140.4758  166.8222 C.3     1  UNL1        0.1095
     14 N         139.6554  141.8333  166.2590 N.pl3   1  UNL1       -0.2903
     15 C         140.2762  142.8858  167.1290 C.3     1  UNL1        0.1095
     16 C         140.5971  142.5808  168.5621 C.3     1  UNL1        0.0939
     17 C         140.6182  140.9183  170.5585 C.3     1  UNL1        0.1043
     18 O         142.1739  142.3518  172.0668 O.3     1  UNL1       -0.3805
     19 C         141.9835  141.2193  171.1018 C.3     1  UNL1        0.1544
     20 H         143.1092  142.4091  172.3176 H       1  UNL1        0.2105
     21 C         138.5612  142.4629  158.0034 C.ar    1  UNL1        0.0191
     22 C         139.4165  143.4233  157.2312 C.ar    1  UNL1        0.0015
     23 C         139.0956  143.7283  155.7981 C.ar    1  UNL1        0.0000
     24 C         137.9194  143.0729  155.1370 C.ar    1  UNL1        0.0000
     25 C         137.0642  142.1125  155.9090 C.ar    1  UNL1        0.0000
     26 C         137.3850  141.8075  157.3422 C.ar    1  UNL1        0.0015
     27 C         140.2236  140.0619  158.6901 C.ar    1  UNL1        0.0192
     28 C         141.4938  140.4056  157.9701 C.ar    1  UNL1        0.0013
     29 C         142.0041  139.5102  156.8803 C.ar    1  UNL1       -0.0029
     30 C         141.2442  138.2709  156.5105 C.ar    1  UNL1       -0.0061
     31 C         139.9740  137.9271  157.2304 C.ar    1  UNL1       -0.0029
     32 C         139.4637  138.8226  158.3202 C.ar    1  UNL1        0.0013
     33 C         141.7545  137.3754  155.4206 C.3     1  UNL1        0.0991
     34 N         142.0177  135.9258  155.7027 N.3     1  UNL1       -0.2689
     35 C         143.0430  135.5349  156.7255 C.3     1  UNL1        0.0728
     36 C         143.3062  134.0854  157.0076 C.3     1  UNL1        0.0249
     37 C         142.5443  133.0267  156.2669 C.3     1  UNL1        0.0613
     38 C         141.5190  133.4177  155.2441 C.3     1  UNL1        0.0249
     39 C         141.2557  134.8672  154.9620 C.3     1  UNL1        0.0728
     40 C         142.8075  131.5772  156.5489 C.ar    1  UNL1        0.1396
     41 N         142.6753  130.4500  155.5682 N.ar    1  UNL1       -0.1335
     42 N         143.0352  129.1765  156.2743 N.ar    1  UNL1       -0.1277
     43 C         143.3899  129.5167  157.6916 C.ar    1  UNL1        0.1807
     44 N         143.2492  131.0004  157.8613 N.ar    1  UNL1       -0.3234
     45 H         143.4172  131.5068  158.6887 H       1  UNL1        0.1686
     46 C         143.8114  128.5440  158.7528 C.ar    1  UNL1        0.1169
     47 C         142.7929  127.6544  159.4019 C.ar    1  UNL1        0.0223
     48 C         143.2144  126.6816  160.4632 C.ar    1  UNL1        0.0032
     49 C         144.6543  126.5985  160.8753 C.ar    1  UNL1        0.0207
     50 C         145.6727  127.4882  160.2261 C.ar    1  UNL1        0.0989
     51 N         145.2512  128.4609  159.1649 N.ar    1  UNL1       -0.2407
@<TRIPOS>BOND
     1    18    19    1
     2    19    17    1
     3    17    11    1
     4    11    12    1
     5    12    13    1
     6    13    14    1
     7    14     1    1
     8     1     2   ar
     9     2     3   ar
    10     3     4   ar
    11     4     5   ar
    12     5     6   ar
    13     6    21    1
    14    21    22   ar
    15    22    23   ar
    16    23    24   ar
    17    24    25   ar
    18    25    26   ar
    19     6     7   ar
    20     7    27    1
    21    27    28   ar
    22    28    29   ar
    23    29    30   ar
    24    30    33    1
    25    33    34    1
    26    34    35    1
    27    35    36    1
    28    36    37    1
    29    37    40    1
    30    40    41   ar
    31    41    42   ar
    32    42    43   ar
    33    43    46    1
    34    46    47   ar
    35    47    48   ar
    36    48    49   ar
    37    49    50   ar
    38    50    51   ar
    39    43    44   ar
    40    37    38    1
    41    38    39    1
    42    30    31   ar
    43    31    32   ar
    44     7     8   ar
    45     8     9   ar
    46     9    10   ar
    47    14    15    1
    48    15    16    1
    49    16    11    1
    50    10     1   ar
    51     9     4   ar
    52    26    21   ar
    53    32    27   ar
    54    39    34    1
    55    44    40   ar
    56    51    46   ar
    57    18    20    1
    58    44    45    1
@<TRIPOS>MOLECULE
*****
 51 58 0 0 0
SMALL
GASTEIGER

@<TRIPOS>ATOM
      1 C         142.8308  141.9338  164.2175 C.ar    1  UNL1        0.1335
      2 C         143.9438  142.8802  163.8777 C.ar    1  UNL1        0.0360
      3 C         144.0198  143.4878  162.5084 C.ar    1  UNL1        0.0251
      4 C         142.9828  143.1490  161.4789 C.ar    1  UNL1        0.1171
      5 N         143.0589  143.7566  160.1095 N.ar    1  UNL1       -0.2407
      6 C         142.0219  143.4178  159.0800 C.ar    1  UNL1        0.0989
      7 C         140.9089  142.4714  159.4199 C.ar    1  UNL1        0.1005
      8 N         140.8328  141.8638  160.7892 N.ar    1  UNL1       -0.2237
      9 C         141.8698  142.2026  161.8187 C.ar    1  UNL1        0.1814
     10 N         141.7938  141.5950  163.1880 N.ar    1  UNL1       -0.2104
     11 N         142.6025  140.1110  168.3255 N.3     1  UNL1       -0.2677
     12 C         142.5927  139.2292  167.1121 C.3     1  UNL1        0.0939
     13 C         142.6688  139.8368  165.7427 C.3     1  UNL1        0.1095
     14 N         142.7547  141.3262  165.5868 N.pl3   1  UNL1       -0.2903
     15 C         142.7645  142.2080  166.8002 C.3     1  UNL1        0.1095
     16 C         142.6884  141.6004  168.1695 C.3     1  UNL1        0.0939
     17 C         142.5265  139.5034  169.6948 C.3     1  UNL1        0.1043
     18 O         142.1725  140.9619  171.8156 O.3     1  UNL1       -0.3805
     19 C         141.6129  140.0940  170.7276 C.3     1  UNL1        0.1544
     20 H         141.4530  141.2592  172.3942 H       1  UNL1        0.2105
     21 C         142.0980  144.0254  157.7107 C.ar    1  UNL1        0.0191
     22 C         142.8532  143.3250  156.6202 C.ar    1  UNL1        0.0015
     23 C         142.9292  143.9325  155.2509 C.ar    1  UNL1        0.0000
     24 C         142.2501  145.2406  154.9720 C.ar    1  UNL1        0.0000
     25 C         141.4949  145.9410  156.0624 C.ar    1  UNL1        0.0000
     26 C         141.4188  145.3335  157.4318 C.ar    1  UNL1        0.0015
     27 C         139.8719  142.1326  158.3904 C.ar    1  UNL1        0.0192
     28 C         138.6506  142.9914  158.2451 C.ar    1  UNL1        0.0013
     29 C         137.6136  142.6526  157.2156 C.ar    1  UNL1       -0.0029
     30 C         137.7979  141.4550  156.3313 C.ar    1  UNL1       -0.0061
     31 C         139.0192  140.5963  156.4766 C.ar    1  UNL1       -0.0029
     32 C         140.0562  140.9351  157.5061 C.ar    1  UNL1        0.0013
     33 C         136.7610  141.1162  155.3018 C.3     1  UNL1        0.0991
     34 N         135.3445  140.8557  155.7215 N.3     1  UNL1       -0.2689
     35 C         135.0629  139.9984  156.9197 C.3     1  UNL1        0.0728
     36 C         133.6465  139.7380  157.3393 C.3     1  UNL1        0.0249
     37 C         132.5118  140.3349  156.5607 C.3     1  UNL1        0.0613
     38 C         132.7935  141.1922  155.3625 C.3     1  UNL1        0.0249
     39 C         134.2098  141.4526  154.9429 C.3     1  UNL1        0.0728
     40 C         131.0954  140.0745  156.9803 C.ar    1  UNL1        0.1396
     41 N         129.8654  140.4194  156.1942 N.ar    1  UNL1       -0.1335
     42 N         128.6701  139.9815  156.9877 N.ar    1  UNL1       -0.1277
     43 C         129.1616  139.3659  158.2643 C.ar    1  UNL1        0.1807
     44 N         130.6605  139.4234  158.2597 N.ar    1  UNL1       -0.3234
     45 H         131.2544  139.0919  158.9714 H       1  UNL1        0.1686
     46 C         128.3045  138.7934  159.3541 C.ar    1  UNL1        0.1169
     47 C         127.8152  139.6749  160.4647 C.ar    1  UNL1        0.0223
     48 C         126.9582  139.1024  161.5545 C.ar    1  UNL1        0.0032
     49 C         126.5904  137.6483  161.5338 C.ar    1  UNL1        0.0207
     50 C         127.0798  136.7667  160.4230 C.ar    1  UNL1        0.0989
     51 N         127.9368  137.3393  159.3333 N.ar    1  UNL1       -0.2407
@<TRIPOS>BOND
     1    18    19    1
     2    19    17    1
     3    17    11    1
     4    11    12    1
     5    12    13    1
     6    13    14    1
     7    14     1    1
     8     1     2   ar
     9     2     3   ar
    10     3     4   ar
    11     4     5   ar
    12     5     6   ar
    13     6    21    1
    14    21    22   ar
    15    22    23   ar
    16    23    24   ar
    17    24    25   ar
    18    25    26   ar
    19     6     7   ar
    20     7    27    1
    21    27    28   ar
    22    28    29   ar
    23    29    30   ar
    24    30    33    1
    25    33    34    1
    26    34    35    1
    27    35    36    1
    28    36    37    1
    29    37    40    1
    30    40    41   ar
    31    41    42   ar
    32    42    43   ar
    33    43    46    1
    34    46    47   ar
    35    47    48   ar
    36    48    49   ar
    37    49    50   ar
    38    50    51   ar
    39    43    44   ar
    40    37    38    1
    41    38    39    1
    42    30    31   ar
    43    31    32   ar
    44     7     8   ar
    45     8     9   ar
    46     9    10   ar
    47    14    15    1
    48    15    16    1
    49    16    11    1
    50    10     1   ar
    51     9     4   ar
    52    26    21   ar
    53    32    27   ar
    54    39    34    1
    55    44    40   ar
    56    51    46   ar
    57    18    20    1
    58    44    45    1
@<TRIPOS>MOLECULE
*****
 51 58 0 0 0
SMALL
GASTEIGER

@<TRIPOS>ATOM
      1 C         141.4856  143.2817  164.3295 C.ar    1  UNL1        0.1335
      2 C         141.1536  144.6986  163.9663 C.ar    1  UNL1        0.0360
      3 C         141.0469  145.0979  162.5244 C.ar    1  UNL1        0.0251
      4 C         141.2721  144.0802  161.4457 C.ar    1  UNL1        0.1171
      5 N         141.1653  144.4796  160.0037 N.ar    1  UNL1       -0.2407
      6 C         141.3905  143.4619  158.9250 C.ar    1  UNL1        0.0989
      7 C         141.7225  142.0449  159.2882 C.ar    1  UNL1        0.1005
      8 N         141.8293  141.6456  160.7301 N.ar    1  UNL1       -0.2237
      9 C         141.6041  142.6633  161.8088 C.ar    1  UNL1        0.1814
     10 N         141.7109  142.2640  163.2507 N.ar    1  UNL1       -0.2104
     11 N         141.8060  142.0836  168.6553 N.3     1  UNL1       -0.2677
     12 C         143.0122  142.0138  167.7664 C.3     1  UNL1        0.0939
     13 C         142.9054  142.4132  166.3245 C.3     1  UNL1        0.1095
     14 N         141.5924  142.8823  165.7714 N.pl3   1  UNL1       -0.2903
     15 C         140.3862  142.9520  166.6603 C.3     1  UNL1        0.1095
     16 C         140.4929  142.5527  168.1022 C.3     1  UNL1        0.0939
     17 C         141.9127  141.6843  170.0972 C.3     1  UNL1        0.1043
     18 O         140.7981  140.5267  172.1387 O.3     1  UNL1       -0.3805
     19 C         140.6797  141.3102  170.8650 C.3     1  UNL1        0.1544
     20 H         139.9138  140.3703  172.5055 H       1  UNL1        0.2105
     21 C         141.2837  143.8612  157.4831 C.ar    1  UNL1        0.0191
     22 C         139.9711  143.7417  156.7670 C.ar    1  UNL1        0.0015
     23 C         139.8643  144.1410  155.3251 C.ar    1  UNL1        0.0000
     24 C         141.0701  144.6598  154.5992 C.ar    1  UNL1        0.0000
     25 C         142.3827  144.7794  155.3153 C.ar    1  UNL1        0.0000
     26 C         142.4895  144.3801  156.7572 C.ar    1  UNL1        0.0015
     27 C         141.9477  141.0273  158.2095 C.ar    1  UNL1        0.0192
     28 C         140.7989  140.2092  157.6985 C.ar    1  UNL1        0.0013
     29 C         141.0241  139.1916  156.6198 C.ar    1  UNL1       -0.0029
     30 C         142.3982  138.9919  156.0521 C.ar    1  UNL1       -0.0061
     31 C         143.5469  139.8099  156.5631 C.ar    1  UNL1       -0.0029
     32 C         143.3217  140.8276  157.6418 C.ar    1  UNL1        0.0013
     33 C         142.6234  137.9743  154.9734 C.3     1  UNL1        0.0991
     34 N         142.6752  136.5152  155.3178 N.3     1  UNL1       -0.2689
     35 C         143.0625  136.0845  156.7014 C.3     1  UNL1        0.0728
     36 C         143.1143  134.6254  157.0458 C.3     1  UNL1        0.0249
     37 C         142.7788  133.5971  156.0065 C.3     1  UNL1        0.0613
     38 C         142.3915  134.0279  154.6228 C.3     1  UNL1        0.0249
     39 C         142.3397  135.4869  154.2785 C.3     1  UNL1        0.0728
     40 C         142.8307  132.1381  156.3508 C.ar    1  UNL1        0.1396
     41 N         142.2946  131.0150  155.5134 N.ar    1  UNL1       -0.1335
     42 N         142.5602  129.7288  156.2381 N.ar    1  UNL1       -0.1277
     43 C         143.2606  130.0571  157.5234 C.ar    1  UNL1        0.1807
     44 N         143.4277  131.5461  157.5930 N.ar    1  UNL1       -0.3234
     45 H         143.8543  132.0469  158.3254 H       1  UNL1        0.1686
     46 C         143.7141  129.0696  158.5574 C.ar    1  UNL1        0.1169
     47 C         145.1664  128.9785  158.9213 C.ar    1  UNL1        0.0223
     48 C         145.6200  127.9910  159.9554 C.ar    1  UNL1        0.0032
     49 C         144.6213  127.0947  160.6255 C.ar    1  UNL1        0.0207
     50 C         143.1688  127.1859  160.2615 C.ar    1  UNL1        0.0989
     51 N         142.7154  128.1733  159.2275 N.ar    1  UNL1       -0.2407
@<TRIPOS>BOND
     1    18    19    1
     2    19    17    1
     3    17    11    1
     4    11    12    1
     5    12    13    1
     6    13    14    1
     7    14     1    1
     8     1     2   ar
     9     2     3   ar
    10     3     4   ar
    11     4     5   ar
    12     5     6   ar
    13     6    21    1
    14    21    22   ar
    15    22    23   ar
    16    23    24   ar
    17    24    25   ar
    18    25    26   ar
    19     6     7   ar
    20     7    27    1
    21    27    28   ar
    22    28    29   ar
    23    29    30   ar
    24    30    33    1
    25    33    34    1
    26    34    35    1
    27    35    36    1
    28    36    37    1
    29    37    40    1
    30    40    41   ar
    31    41    42   ar
    32    42    43   ar
    33    43    46    1
    34    46    47   ar
    35    47    48   ar
    36    48    49   ar
    37    49    50   ar
    38    50    51   ar
    39    43    44   ar
    40    37    38    1
    41    38    39    1
    42    30    31   ar
    43    31    32   ar
    44     7     8   ar
    45     8     9   ar
    46     9    10   ar
    47    14    15    1
    48    15    16    1
    49    16    11    1
    50    10     1   ar
    51     9     4   ar
    52    26    21   ar
    53    32    27   ar
    54    39    34    1
    55    44    40   ar
    56    51    46   ar
    57    18    20    1
    58    44    45    1
@<TRIPOS>MOLECULE
*****
 51 58 0 0 0
SMALL
GASTEIGER

@<TRIPOS>ATOM
      1 C         133.5144  140.6177  155.6780 C.ar    1  UNL1        0.1335
      2 C         133.6675  141.3642  154.3860 C.ar    1  UNL1        0.0360
      3 C         135.0339  141.7383  153.8934 C.ar    1  UNL1        0.0251
      4 C         136.2473  141.3660  154.6928 C.ar    1  UNL1        0.1171
      5 N         137.6139  141.7402  154.2001 N.ar    1  UNL1       -0.2407
      6 C         138.8273  141.3679  154.9995 C.ar    1  UNL1        0.0989
      7 C         138.6741  140.6214  156.2916 C.ar    1  UNL1        0.1005
      8 N         137.3077  140.2473  156.7842 N.ar    1  UNL1       -0.2237
      9 C         136.0943  140.6196  155.9848 C.ar    1  UNL1        0.1814
     10 N         134.7278  140.2454  156.4774 N.ar    1  UNL1       -0.2104
     11 N         129.4149  139.4952  157.1560 N.3     1  UNL1       -0.2677
     12 C         129.5839  140.6598  156.2259 C.3     1  UNL1        0.0939
     13 C         130.9504  141.0340  155.7333 C.3     1  UNL1        0.1095
     14 N         132.1478  140.2436  156.1707 N.pl3   1  UNL1       -0.2903
     15 C         131.9788  139.0789  157.1007 C.3     1  UNL1        0.1095
     16 C         130.6124  138.7047  157.5934 C.3     1  UNL1        0.0939
     17 C         128.0484  139.1210  157.6487 C.3     1  UNL1        0.1043
     18 O         128.6143  139.9028  160.0609 O.3     1  UNL1       -0.3805
     19 C         127.7603  139.1048  159.1206 C.3     1  UNL1        0.1544
     20 H         128.2950  139.7825  160.9689 H       1  UNL1        0.2105
     21 C         140.1937  141.7420  154.5069 C.ar    1  UNL1        0.0191
     22 C         140.9419  140.8155  153.5948 C.ar    1  UNL1        0.0015
     23 C         142.3084  141.1896  153.1022 C.ar    1  UNL1        0.0000
     24 C         142.9268  142.4903  153.5216 C.ar    1  UNL1        0.0000
     25 C         142.1787  143.4168  154.4337 C.ar    1  UNL1        0.0000
     26 C         140.8121  143.0426  154.9264 C.ar    1  UNL1        0.0015
     27 C         139.8875  140.2491  157.0910 C.ar    1  UNL1        0.0192
     28 C         140.5938  138.9532  156.8227 C.ar    1  UNL1        0.0013
     29 C         141.8072  138.5809  157.6221 C.ar    1  UNL1       -0.0029
     30 C         142.3143  139.5045  158.6898 C.ar    1  UNL1       -0.0061
     31 C         141.6081  140.8003  158.9580 C.ar    1  UNL1       -0.0029
     32 C         140.3947  141.1726  158.1586 C.ar    1  UNL1        0.0013
     33 C         143.5277  139.1322  159.4892 C.3     1  UNL1        0.0991
     34 N         143.4584  139.1014  160.9874 N.3     1  UNL1       -0.2689
     35 C         144.3476  139.9971  161.7978 C.3     1  UNL1        0.0728
     36 C         144.2783  139.9664  163.2960 C.3     1  UNL1        0.0249
     37 C         143.3198  139.0398  163.9835 C.3     1  UNL1        0.0613
     38 C         142.4306  138.1439  163.1730 C.3     1  UNL1        0.0249
     39 C         142.5000  138.1748  161.6749 C.3     1  UNL1        0.0728
     40 C         143.2505  139.0089  165.4816 C.ar    1  UNL1        0.1396
     41 N         143.8696  137.9724  166.3717 N.ar    1  UNL1       -0.1335
     42 N         143.5516  138.3321  167.7928 N.ar    1  UNL1       -0.1277
     43 C         142.7360  139.5909  167.7809 C.ar    1  UNL1        0.1807
     44 N         142.5499  140.0092  166.3525 N.ar    1  UNL1       -0.3234
     45 H         142.0548  140.8012  166.0413 H       1  UNL1        0.1686
     46 C         142.2004  140.3059  168.9860 C.ar    1  UNL1        0.1169
     47 C         142.8595  141.5652  169.4653 C.ar    1  UNL1        0.0223
     48 C         142.3239  142.2802  170.6703 C.ar    1  UNL1        0.0032
     49 C         141.1293  141.7359  171.3960 C.ar    1  UNL1        0.0207
     50 C         140.4702  140.4765  170.9166 C.ar    1  UNL1        0.0989
     51 N         141.0058  139.7616  169.7116 N.ar    1  UNL1       -0.2407
@<TRIPOS>BOND
     1    18    19    1
     2    19    17    1
     3    17    11    1
     4    11    12    1
     5    12    13    1
     6    13    14    1
     7    14     1    1
     8     1     2   ar
     9     2     3   ar
    10     3     4   ar
    11     4     5   ar
    12     5     6   ar
    13     6    21    1
    14    21    22   ar
    15    22    23   ar
    16    23    24   ar
    17    24    25   ar
    18    25    26   ar
    19     6     7   ar
    20     7    27    1
    21    27    28   ar
    22    28    29   ar
    23    29    30   ar
    24    30    33    1
    25    33    34    1
    26    34    35    1
    27    35    36    1
    28    36    37    1
    29    37    40    1
    30    40    41   ar
    31    41    42   ar
    32    42    43   ar
    33    43    46    1
    34    46    47   ar
    35    47    48   ar
    36    48    49   ar
    37    49    50   ar
    38    50    51   ar
    39    43    44   ar
    40    37    38    1
    41    38    39    1
    42    30    31   ar
    43    31    32   ar
    44     7     8   ar
    45     8     9   ar
    46     9    10   ar
    47    14    15    1
    48    15    16    1
    49    16    11    1
    50    10     1   ar
    51     9     4   ar
    52    26    21   ar
    53    32    27   ar
    54    39    34    1
    55    44    40   ar
    56    51    46   ar
    57    18    20    1
    58    44    45    1
@<TRIPOS>MOLECULE
*****
 51 58 0 0 0
SMALL
GASTEIGER

@<TRIPOS>ATOM
      1 C         142.3309  140.2718  164.7883 C.ar    1  UNL1        0.1335
      2 C         143.6343  139.5743  164.5344 C.ar    1  UNL1        0.0360
      3 C         144.2094  139.5403  163.1494 C.ar    1  UNL1        0.0251
      4 C         143.4811  140.2039  162.0184 C.ar    1  UNL1        0.1171
      5 N         144.0563  140.1699  160.6334 N.ar    1  UNL1       -0.2407
      6 C         143.3280  140.8334  159.5024 C.ar    1  UNL1        0.0989
      7 C         142.0245  141.5310  159.7563 C.ar    1  UNL1        0.1005
      8 N         141.4494  141.5650  161.1413 N.ar    1  UNL1       -0.2237
      9 C         142.1777  140.9014  162.2723 C.ar    1  UNL1        0.1814
     10 N         141.6026  140.9354  163.6572 N.ar    1  UNL1       -0.2104
     11 N         140.6054  140.3739  168.9431 N.3     1  UNL1       -0.2677
     12 C         142.0361  140.7627  168.7154 C.3     1  UNL1        0.0939
     13 C         142.6113  140.7287  167.3304 C.3     1  UNL1        0.1095
     14 N         141.7558  140.3059  166.1732 N.pl3   1  UNL1       -0.2903
     15 C         140.3251  139.9170  166.4009 C.3     1  UNL1        0.1095
     16 C         139.7499  139.9510  167.7858 C.3     1  UNL1        0.0939
     17 C         140.0303  140.4079  170.3280 C.3     1  UNL1        0.1043
     18 O         140.4419  142.2257  172.1380 O.3     1  UNL1       -0.3805
     19 C         140.8457  140.9470  171.4657 C.3     1  UNL1        0.1544
     20 H         141.0711  142.4308  172.8472 H       1  UNL1        0.2105
     21 C         143.9031  140.7995  158.1175 C.ar    1  UNL1        0.0191
     22 C         144.8813  141.8515  157.6855 C.ar    1  UNL1        0.0015
     23 C         145.4564  141.8175  156.3006 C.ar    1  UNL1        0.0000
     24 C         145.0533  140.7315  155.3475 C.ar    1  UNL1        0.0000
     25 C         144.0752  139.6796  155.7794 C.ar    1  UNL1        0.0000
     26 C         143.5001  139.7135  157.1644 C.ar    1  UNL1        0.0015
     27 C         141.2962  142.1946  158.6253 C.ar    1  UNL1        0.0192
     28 C         141.6140  143.6141  158.2588 C.ar    1  UNL1        0.0013
     29 C         140.8857  144.2777  157.1278 C.ar    1  UNL1       -0.0029
     30 C         139.8396  143.5218  156.3632 C.ar    1  UNL1       -0.0061
     31 C         139.5219  142.1024  156.7297 C.ar    1  UNL1       -0.0029
     32 C         140.2502  141.4388  157.8607 C.ar    1  UNL1        0.0013
     33 C         139.1113  144.1854  155.2322 C.3     1  UNL1        0.0991
     34 N         139.4179  145.6099  154.8759 N.3     1  UNL1       -0.2689
     35 C         138.7101  146.7284  155.5814 C.3     1  UNL1        0.0728
     36 C         139.0167  148.1529  155.2251 C.3     1  UNL1        0.0249
     37 C         140.0311  148.4588  154.1633 C.3     1  UNL1        0.0613
     38 C         140.7389  147.3401  153.4577 C.3     1  UNL1        0.0249
     39 C         140.4323  145.9157  153.8141 C.3     1  UNL1        0.0728
     40 C         140.3376  149.8832  153.8069 C.ar    1  UNL1        0.1396
     41 N         139.5843  150.7275  152.8222 N.ar    1  UNL1       -0.1335
     42 N         140.2324  152.0795  152.7794 N.ar    1  UNL1       -0.1277
     43 C         141.3864  152.0708  153.7378 C.ar    1  UNL1        0.1807
     44 N         141.4514  150.7134  154.3728 N.ar    1  UNL1       -0.3234
     45 H         142.1095  150.4191  155.0432 H       1  UNL1        0.1686
     46 C         142.3128  153.2181  154.0128 C.ar    1  UNL1        0.1169
     47 C         143.7605  152.9591  154.3077 C.ar    1  UNL1        0.0223
     48 C         144.6868  154.1064  154.5827 C.ar    1  UNL1        0.0032
     49 C         144.1655  155.5127  154.5628 C.ar    1  UNL1        0.0207
     50 C         142.7176  155.7717  154.2678 C.ar    1  UNL1        0.0989
     51 N         141.7914  154.6245  153.9929 N.ar    1  UNL1       -0.2407
@<TRIPOS>BOND
     1    18    19    1
     2    19    17    1
     3    17    11    1
     4    11    12    1
     5    12    13    1
     6    13    14    1
     7    14     1    1
     8     1     2   ar
     9     2     3   ar
    10     3     4   ar
    11     4     5   ar
    12     5     6   ar
    13     6    21    1
    14    21    22   ar
    15    22    23   ar
    16    23    24   ar
    17    24    25   ar
    18    25    26   ar
    19     6     7   ar
    20     7    27    1
    21    27    28   ar
    22    28    29   ar
    23    29    30   ar
    24    30    33    1
    25    33    34    1
    26    34    35    1
    27    35    36    1
    28    36    37    1
    29    37    40    1
    30    40    41   ar
    31    41    42   ar
    32    42    43   ar
    33    43    46    1
    34    46    47   ar
    35    47    48   ar
    36    48    49   ar
    37    49    50   ar
    38    50    51   ar
    39    43    44   ar
    40    37    38    1
    41    38    39    1
    42    30    31   ar
    43    31    32   ar
    44     7     8   ar
    45     8     9   ar
    46     9    10   ar
    47    14    15    1
    48    15    16    1
    49    16    11    1
    50    10     1   ar
    51     9     4   ar
    52    26    21   ar
    53    32    27   ar
    54    39    34    1
    55    44    40   ar
    56    51    46   ar
    57    18    20    1
    58    44    45    1
@<TRIPOS>MOLECULE
*****
 51 58 0 0 0
SMALL
GASTEIGER

@<TRIPOS>ATOM
      1 C         140.1620  148.2529  154.2002 C.ar    1  UNL1        0.1335
      2 C         141.0668  147.7451  153.1170 C.ar    1  UNL1        0.0360
      3 C         141.3957  146.2837  153.0384 C.ar    1  UNL1        0.0251
      4 C         140.8197  145.3302  154.0429 C.ar    1  UNL1        0.1171
      5 N         141.1486  143.8688  153.9642 N.ar    1  UNL1       -0.2407
      6 C         140.5726  142.9153  154.9688 C.ar    1  UNL1        0.0989
      7 C         139.6678  143.4232  156.0520 C.ar    1  UNL1        0.1005
      8 N         139.3390  144.8846  156.1307 N.ar    1  UNL1       -0.2237
      9 C         139.9149  145.8381  155.1261 C.ar    1  UNL1        0.1814
     10 N         139.5861  147.2994  155.2048 N.ar    1  UNL1       -0.2104
     11 N         139.1754  152.6372  154.4362 N.3     1  UNL1       -0.2677
     12 C         138.5316  151.6714  155.3864 C.3     1  UNL1        0.0939
     13 C         138.8605  150.2099  155.3077 C.3     1  UNL1        0.1095
     14 N         139.8332  149.7144  154.2789 N.pl3   1  UNL1       -0.2903
     15 C         140.4769  150.6802  153.3288 C.3     1  UNL1        0.1095
     16 C         140.1481  152.1416  153.4074 C.3     1  UNL1        0.0939
     17 C         138.8466  154.0985  154.5149 C.3     1  UNL1        0.1043
     18 O         136.9401  153.7629  152.7821 O.3     1  UNL1       -0.3805
     19 C         137.7216  154.6592  153.6964 C.3     1  UNL1        0.1544
     20 H         136.2547  154.2799  152.3306 H       1  UNL1        0.2105
     21 C         140.9015  141.4539  154.8902 C.ar    1  UNL1        0.0191
     22 C         140.0009  140.5221  154.1347 C.ar    1  UNL1        0.0015
     23 C         140.3297  139.0607  154.0561 C.ar    1  UNL1        0.0000
     24 C         141.5591  138.5311  154.7328 C.ar    1  UNL1        0.0000
     25 C         142.4597  139.4629  155.4882 C.ar    1  UNL1        0.0000
     26 C         142.1309  140.9243  155.5669 C.ar    1  UNL1        0.0015
     27 C         139.0919  142.4697  157.0566 C.ar    1  UNL1        0.0192
     28 C         137.7502  141.8443  156.8137 C.ar    1  UNL1        0.0013
     29 C         137.1743  140.8908  157.8182 C.ar    1  UNL1       -0.0029
     30 C         137.9400  140.5628  159.0657 C.ar    1  UNL1       -0.0061
     31 C         139.2815  141.1882  159.3086 C.ar    1  UNL1       -0.0029
     32 C         139.8575  142.1417  158.3040 C.ar    1  UNL1        0.0013
     33 C         137.3640  139.6093  160.0703 C.3     1  UNL1        0.0991
     34 N         137.7752  139.6980  161.5102 N.3     1  UNL1       -0.2689
     35 C         137.4527  140.9267  162.3078 C.3     1  UNL1        0.0728
     36 C         137.8638  141.0155  163.7477 C.3     1  UNL1        0.0249
     37 C         138.5974  139.8755  164.3898 C.3     1  UNL1        0.0613
     38 C         138.9199  138.6468  163.5921 C.3     1  UNL1        0.0249
     39 C         138.5088  138.5581  162.1523 C.3     1  UNL1        0.0728
     40 C         139.0086  139.9642  165.8296 C.ar    1  UNL1        0.1396
     41 N         138.4136  139.1866  166.9660 N.ar    1  UNL1       -0.1335
     42 N         139.1242  139.5879  168.2245 N.ar    1  UNL1       -0.1277
     43 C         140.1584  140.6136  167.8660 C.ar    1  UNL1        0.1807
     44 N         140.0869  140.8462  166.3858 N.ar    1  UNL1       -0.3234
     45 H         140.6490  141.4684  165.8700 H       1  UNL1        0.1686
     46 C         141.0989  141.2883  168.8201 C.ar    1  UNL1        0.1169
     47 C         142.4598  141.7153  168.3558 C.ar    1  UNL1        0.0223
     48 C         143.4003  142.3900  169.3099 C.ar    1  UNL1        0.0032
     49 C         142.9799  142.6376  170.7283 C.ar    1  UNL1        0.0207
     50 C         141.6189  142.2105  171.1926 C.ar    1  UNL1        0.0989
     51 N         140.6785  141.5359  170.2385 N.ar    1  UNL1       -0.2407
@<TRIPOS>BOND
     1    18    19    1
     2    19    17    1
     3    17    11    1
     4    11    12    1
     5    12    13    1
     6    13    14    1
     7    14     1    1
     8     1     2   ar
     9     2     3   ar
    10     3     4   ar
    11     4     5   ar
    12     5     6   ar
    13     6    21    1
    14    21    22   ar
    15    22    23   ar
    16    23    24   ar
    17    24    25   ar
    18    25    26   ar
    19     6     7   ar
    20     7    27    1
    21    27    28   ar
    22    28    29   ar
    23    29    30   ar
    24    30    33    1
    25    33    34    1
    26    34    35    1
    27    35    36    1
    28    36    37    1
    29    37    40    1
    30    40    41   ar
    31    41    42   ar
    32    42    43   ar
    33    43    46    1
    34    46    47   ar
    35    47    48   ar
    36    48    49   ar
    37    49    50   ar
    38    50    51   ar
    39    43    44   ar
    40    37    38    1
    41    38    39    1
    42    30    31   ar
    43    31    32   ar
    44     7     8   ar
    45     8     9   ar
    46     9    10   ar
    47    14    15    1
    48    15    16    1
    49    16    11    1
    50    10     1   ar
    51     9     4   ar
    52    26    21   ar
    53    32    27   ar
    54    39    34    1
    55    44    40   ar
    56    51    46   ar
    57    18    20    1
    58    44    45    1
@<TRIPOS>MOLECULE
*****
 51 58 0 0 0
SMALL
GASTEIGER

@<TRIPOS>ATOM
      1 C         141.6357  139.9767  164.2711 C.ar    1  UNL1        0.1335
      2 C         142.0392  138.5463  164.0687 C.ar    1  UNL1        0.0360
      3 C         142.0142  137.9474  162.6937 C.ar    1  UNL1        0.0251
      4 C         141.5857  138.7789  161.5211 C.ar    1  UNL1        0.1171
      5 N         141.5607  138.1799  160.1461 N.ar    1  UNL1       -0.2407
      6 C         141.1322  139.0114  158.9735 C.ar    1  UNL1        0.0989
      7 C         140.7287  140.4419  159.1759 C.ar    1  UNL1        0.1005
      8 N         140.7537  141.0408  160.5509 N.ar    1  UNL1       -0.2237
      9 C         141.1822  140.2093  161.7235 C.ar    1  UNL1        0.1814
     10 N         141.2072  140.8082  163.0985 N.ar    1  UNL1       -0.2104
     11 N         141.7106  141.7737  168.3961 N.3     1  UNL1       -0.2677
     12 C         142.4828  140.5200  168.1101 C.3     1  UNL1        0.0939
     13 C         142.4578  139.9210  166.7350 C.3     1  UNL1        0.1095
     14 N         141.6606  140.5757  165.6461 N.pl3   1  UNL1       -0.2903
     15 C         140.8885  141.8295  165.9321 C.3     1  UNL1        0.1095
     16 C         140.9134  142.4285  167.3071 C.3     1  UNL1        0.0939
     17 C         141.7355  142.3727  169.7710 C.3     1  UNL1        0.1043
     18 O         143.0830  144.1438  171.1118 O.3     1  UNL1       -0.3805
     19 C         143.0313  142.8475  170.3588 C.3     1  UNL1        0.1544
     20 H         143.9882  144.3011  171.4229 H       1  UNL1        0.2105
     21 C         141.1072  138.4124  157.5985 C.ar    1  UNL1        0.0191
     22 C         142.3081  138.5300  156.7072 C.ar    1  UNL1        0.0015
     23 C         142.2831  137.9311  155.3323 C.ar    1  UNL1        0.0000
     24 C         141.0573  137.2146  154.8484 C.ar    1  UNL1        0.0000
     25 C         139.8565  137.0970  155.7396 C.ar    1  UNL1        0.0000
     26 C         139.8815  137.6959  157.1147 C.ar    1  UNL1        0.0015
     27 C         140.3002  141.2734  158.0033 C.ar    1  UNL1        0.0192
     28 C         138.8876  141.1952  157.5047 C.ar    1  UNL1        0.0013
     29 C         138.4592  142.0267  156.3321 C.ar    1  UNL1       -0.0029
     30 C         139.4433  142.9364  155.6581 C.ar    1  UNL1       -0.0061
     31 C         140.8557  143.0145  156.1568 C.ar    1  UNL1       -0.0029
     32 C         141.2842  142.1830  157.3294 C.ar    1  UNL1        0.0013
     33 C         139.0148  143.7679  154.4855 C.3     1  UNL1        0.0991
     34 N         139.2853  145.2433  154.4735 N.3     1  UNL1       -0.2689
     35 C         140.3766  145.7987  153.6071 C.3     1  UNL1        0.0728
     36 C         140.6471  147.2741  153.5951 C.3     1  UNL1        0.0249
     37 C         139.8263  148.1941  154.4495 C.3     1  UNL1        0.0613
     38 C         138.7349  147.6386  155.3159 C.3     1  UNL1        0.0249
     39 C         138.4645  146.1633  155.3278 C.3     1  UNL1        0.0728
     40 C         140.0967  149.6694  154.4375 C.ar    1  UNL1        0.1396
     41 N         139.1937  150.7358  154.9828 N.ar    1  UNL1       -0.1335
     42 N         139.8566  152.0629  154.7604 N.ar    1  UNL1       -0.1277
     43 C         141.1693  151.8166  154.0776 C.ar    1  UNL1        0.1807
     44 N         141.3177  150.3374  153.8781 N.ar    1  UNL1       -0.3234
     45 H         142.0823  149.8844  153.4543 H       1  UNL1        0.1686
     46 C         142.1598  152.8655  153.6666 C.ar    1  UNL1        0.1169
     47 C         143.5828  152.7769  154.1326 C.ar    1  UNL1        0.0223
     48 C         144.5733  153.8258  153.7216 C.ar    1  UNL1        0.0032
     49 C         144.1407  154.9632  152.8446 C.ar    1  UNL1        0.0207
     50 C         142.7175  155.0517  152.3786 C.ar    1  UNL1        0.0989
     51 N         141.7272  154.0029  152.7896 N.ar    1  UNL1       -0.2407
@<TRIPOS>BOND
     1    18    19    1
     2    19    17    1
     3    17    11    1
     4    11    12    1
     5    12    13    1
     6    13    14    1
     7    14     1    1
     8     1     2   ar
     9     2     3   ar
    10     3     4   ar
    11     4     5   ar
    12     5     6   ar
    13     6    21    1
    14    21    22   ar
    15    22    23   ar
    16    23    24   ar
    17    24    25   ar
    18    25    26   ar
    19     6     7   ar
    20     7    27    1
    21    27    28   ar
    22    28    29   ar
    23    29    30   ar
    24    30    33    1
    25    33    34    1
    26    34    35    1
    27    35    36    1
    28    36    37    1
    29    37    40    1
    30    40    41   ar
    31    41    42   ar
    32    42    43   ar
    33    43    46    1
    34    46    47   ar
    35    47    48   ar
    36    48    49   ar
    37    49    50   ar
    38    50    51   ar
    39    43    44   ar
    40    37    38    1
    41    38    39    1
    42    30    31   ar
    43    31    32   ar
    44     7     8   ar
    45     8     9   ar
    46     9    10   ar
    47    14    15    1
    48    15    16    1
    49    16    11    1
    50    10     1   ar
    51     9     4   ar
    52    26    21   ar
    53    32    27   ar
    54    39    34    1
    55    44    40   ar
    56    51    46   ar
    57    18    20    1
    58    44    45    1
@<TRIPOS>MOLECULE
*****
 51 58 0 0 0
SMALL
GASTEIGER

@<TRIPOS>ATOM
      1 C         140.9475  143.3671  164.2418 C.ar    1  UNL1        0.1335
      2 C         140.0433  144.5403  164.0052 C.ar    1  UNL1        0.0360
      3 C         139.6313  144.8998  162.6085 C.ar    1  UNL1        0.0251
      4 C         140.1234  144.0862  161.4484 C.ar    1  UNL1        0.1171
      5 N         139.7114  144.4459  160.0516 N.ar    1  UNL1       -0.2407
      6 C         140.2035  143.6323  158.8915 C.ar    1  UNL1        0.0989
      7 C         141.1078  142.4591  159.1282 C.ar    1  UNL1        0.1005
      8 N         141.5199  142.0995  160.5249 N.ar    1  UNL1       -0.2237
      9 C         141.0277  142.9131  161.6850 C.ar    1  UNL1        0.1814
     10 N         141.4397  142.5535  163.0817 N.ar    1  UNL1       -0.2104
     11 N         142.1838  142.2883  168.4321 N.3     1  UNL1       -0.2677
     12 C         143.2188  142.4140  167.3537 C.3     1  UNL1        0.0939
     13 C         142.8067  142.7737  165.9569 C.3     1  UNL1        0.1095
     14 N         141.3596  143.0075  165.6386 N.pl3   1  UNL1       -0.2903
     15 C         140.3246  142.8817  166.7170 C.3     1  UNL1        0.1095
     16 C         140.7367  142.5221  168.1137 C.3     1  UNL1        0.0939
     17 C         142.5958  141.9287  169.8289 C.3     1  UNL1        0.1043
     18 O         142.0496  140.6324  172.0132 O.3     1  UNL1       -0.3805
     19 C         141.5895  141.3597  170.7846 C.3     1  UNL1        0.1544
     20 H         141.2783  140.3310  172.5184 H       1  UNL1        0.2105
     21 C         139.7915  143.9918  157.4948 C.ar    1  UNL1        0.0191
     22 C         138.6090  143.3175  156.8646 C.ar    1  UNL1        0.0015
     23 C         138.1970  143.6771  155.4678 C.ar    1  UNL1        0.0000
     24 C         138.9673  144.7110  154.7013 C.ar    1  UNL1        0.0000
     25 C         140.1497  145.3853  155.3314 C.ar    1  UNL1        0.0000
     26 C         140.5618  145.0257  156.7282 C.ar    1  UNL1        0.0015
     27 C         141.6000  141.6455  157.9681 C.ar    1  UNL1        0.0192
     28 C         140.8204  140.4502  157.5059 C.ar    1  UNL1        0.0013
     29 C         141.3126  139.6366  156.3458 C.ar    1  UNL1       -0.0029
     30 C         142.5844  140.0183  155.6479 C.ar    1  UNL1       -0.0061
     31 C         143.3639  141.2136  156.1101 C.ar    1  UNL1       -0.0029
     32 C         142.8717  142.0272  157.2702 C.ar    1  UNL1        0.0013
     33 C         143.0766  139.2048  154.4878 C.3     1  UNL1        0.0991
     34 N         142.9208  137.7129  154.4982 N.3     1  UNL1       -0.2689
     35 C         143.7166  136.8824  155.4610 C.3     1  UNL1        0.0728
     36 C         143.5608  135.3905  155.4714 C.3     1  UNL1        0.0249
     37 C         142.6092  134.7291  154.5191 C.3     1  UNL1        0.0613
     38 C         141.8134  135.5597  153.5562 C.3     1  UNL1        0.0249
     39 C         141.9692  137.0515  153.5459 C.3     1  UNL1        0.0728
     40 C         142.4534  133.2373  154.5295 C.ar    1  UNL1        0.1396
     41 N         141.2535  132.4728  154.0541 N.ar    1  UNL1       -0.1335
     42 N         141.5286  131.0110  154.2479 N.ar    1  UNL1       -0.1277
     43 C         142.8986  130.8722  154.8430 C.ar    1  UNL1        0.1807
     44 N         143.4700  132.2481  155.0170 N.ar    1  UNL1       -0.3234
     45 H         144.3567  132.4639  155.3863 H       1  UNL1        0.1686
     46 C         143.5777  129.5836  155.2012 C.ar    1  UNL1        0.1169
     47 C         144.9499  129.2869  154.6730 C.ar    1  UNL1        0.0223
     48 C         145.6291  127.9983  155.0312 C.ar    1  UNL1        0.0032
     49 C         144.9360  127.0064  155.9176 C.ar    1  UNL1        0.0207
     50 C         143.5637  127.3031  156.4458 C.ar    1  UNL1        0.0989
     51 N         142.8847  128.5916  156.0876 N.ar    1  UNL1       -0.2407
@<TRIPOS>BOND
     1    18    19    1
     2    19    17    1
     3    17    11    1
     4    11    12    1
     5    12    13    1
     6    13    14    1
     7    14     1    1
     8     1     2   ar
     9     2     3   ar
    10     3     4   ar
    11     4     5   ar
    12     5     6   ar
    13     6    21    1
    14    21    22   ar
    15    22    23   ar
    16    23    24   ar
    17    24    25   ar
    18    25    26   ar
    19     6     7   ar
    20     7    27    1
    21    27    28   ar
    22    28    29   ar
    23    29    30   ar
    24    30    33    1
    25    33    34    1
    26    34    35    1
    27    35    36    1
    28    36    37    1
    29    37    40    1
    30    40    41   ar
    31    41    42   ar
    32    42    43   ar
    33    43    46    1
    34    46    47   ar
    35    47    48   ar
    36    48    49   ar
    37    49    50   ar
    38    50    51   ar
    39    43    44   ar
    40    37    38    1
    41    38    39    1
    42    30    31   ar
    43    31    32   ar
    44     7     8   ar
    45     8     9   ar
    46     9    10   ar
    47    14    15    1
    48    15    16    1
    49    16    11    1
    50    10     1   ar
    51     9     4   ar
    52    26    21   ar
    53    32    27   ar
    54    39    34    1
    55    44    40   ar
    56    51    46   ar
    57    18    20    1
    58    44    45    1
@<TRIPOS>MOLECULE
*****
 51 58 0 0 0
SMALL
GASTEIGER

@<TRIPOS>ATOM
      1 C         142.9717  142.0238  164.2931 C.ar    1  UNL1        0.1335
      2 C         144.4449  142.0773  164.0156 C.ar    1  UNL1        0.0360
      3 C         144.9427  142.0581  162.6008 C.ar    1  UNL1        0.0251
      4 C         143.9675  141.9854  161.4635 C.ar    1  UNL1        0.1171
      5 N         144.4654  141.9662  160.0486 N.ar    1  UNL1       -0.2407
      6 C         143.4901  141.8935  158.9113 C.ar    1  UNL1        0.0989
      7 C         142.0169  141.8400  159.1888 C.ar    1  UNL1        0.1005
      8 N         141.5191  141.8593  160.6036 N.ar    1  UNL1       -0.2237
      9 C         142.4943  141.9319  161.7409 C.ar    1  UNL1        0.1814
     10 N         141.9965  141.9511  163.1557 N.ar    1  UNL1       -0.2104
     11 N         141.4780  142.0815  168.5376 N.3     1  UNL1       -0.2677
     12 C         140.5116  141.9007  167.4048 C.3     1  UNL1        0.0939
     13 C         141.0095  141.8814  165.9900 C.3     1  UNL1        0.1095
     14 N         142.4738  142.0430  165.7080 N.pl3   1  UNL1       -0.2903
     15 C         143.4403  142.2239  166.8408 C.3     1  UNL1        0.1095
     16 C         142.9424  142.2431  168.2556 C.3     1  UNL1        0.0939
     17 C         140.9802  142.1007  169.9524 C.3     1  UNL1        0.1043
     18 O         140.5972  140.6625  172.0820 O.3     1  UNL1       -0.3805
     19 C         141.4686  141.0764  170.9333 C.3     1  UNL1        0.1544
     20 H         141.0599  139.9978  172.6158 H       1  UNL1        0.2105
     21 C         143.9880  141.8743  157.4964 C.ar    1  UNL1        0.0191
     22 C         144.7864  140.7062  156.9981 C.ar    1  UNL1        0.0015
     23 C         145.2842  140.6870  155.5833 C.ar    1  UNL1        0.0000
     24 C         144.9838  141.8358  154.6668 C.ar    1  UNL1        0.0000
     25 C         144.1854  143.0038  155.1651 C.ar    1  UNL1        0.0000
     26 C         143.6875  143.0231  156.5799 C.ar    1  UNL1        0.0015
     27 C         141.0417  141.7674  158.0514 C.ar    1  UNL1        0.0192
     28 C         140.2992  142.9974  157.6203 C.ar    1  UNL1        0.0013
     29 C         139.3240  142.9248  156.4830 C.ar    1  UNL1       -0.0029
     30 C         139.0912  141.6220  155.7767 C.ar    1  UNL1       -0.0061
     31 C         139.8336  140.3920  156.2078 C.ar    1  UNL1       -0.0029
     32 C         140.8089  140.4647  157.3451 C.ar    1  UNL1        0.0013
     33 C         138.1159  141.5493  154.6393 C.3     1  UNL1        0.0991
     34 N         136.6617  141.3032  154.9129 N.3     1  UNL1       -0.2689
     35 C         136.2316  140.7453  156.2371 C.3     1  UNL1        0.0728
     36 C         134.7774  140.4992  156.5107 C.3     1  UNL1        0.0249
     37 C         133.7533  140.8111  155.4599 C.3     1  UNL1        0.0613
     38 C         134.1835  141.3690  154.1356 C.3     1  UNL1        0.0249
     39 C         135.6376  141.6151  153.8621 C.3     1  UNL1        0.0728
     40 C         132.2992  140.5650  155.7334 C.ar    1  UNL1        0.1396
     41 N         131.1724  141.5058  155.4247 N.ar    1  UNL1       -0.1335
     42 N         129.8933  140.8572  155.8641 N.ar    1  UNL1       -0.1277
     43 C         130.2295  139.5154  156.4444 C.ar    1  UNL1        0.1807
     44 N         131.7164  139.3349  156.3636 N.ar    1  UNL1       -0.3234
     45 H         132.2212  138.5473  156.6704 H       1  UNL1        0.1686
     46 C         129.2507  138.5277  157.0068 C.ar    1  UNL1        0.1169
     47 C         128.4738  137.6342  156.0858 C.ar    1  UNL1        0.0223
     48 C         127.4950  136.6464  156.6482 C.ar    1  UNL1        0.0032
     49 C         127.2930  136.5522  158.1315 C.ar    1  UNL1        0.0207
     50 C         128.0699  137.4457  159.0525 C.ar    1  UNL1        0.0989
     51 N         129.0487  138.4334  158.4901 N.ar    1  UNL1       -0.2407
@<TRIPOS>BOND
     1    18    19    1
     2    19    17    1
     3    17    11    1
     4    11    12    1
     5    12    13    1
     6    13    14    1
     7    14     1    1
     8     1     2   ar
     9     2     3   ar
    10     3     4   ar
    11     4     5   ar
    12     5     6   ar
    13     6    21    1
    14    21    22   ar
    15    22    23   ar
    16    23    24   ar
    17    24    25   ar
    18    25    26   ar
    19     6     7   ar
    20     7    27    1
    21    27    28   ar
    22    28    29   ar
    23    29    30   ar
    24    30    33    1
    25    33    34    1
    26    34    35    1
    27    35    36    1
    28    36    37    1
    29    37    40    1
    30    40    41   ar
    31    41    42   ar
    32    42    43   ar
    33    43    46    1
    34    46    47   ar
    35    47    48   ar
    36    48    49   ar
    37    49    50   ar
    38    50    51   ar
    39    43    44   ar
    40    37    38    1
    41    38    39    1
    42    30    31   ar
    43    31    32   ar
    44     7     8   ar
    45     8     9   ar
    46     9    10   ar
    47    14    15    1
    48    15    16    1
    49    16    11    1
    50    10     1   ar
    51     9     4   ar
    52    26    21   ar
    53    32    27   ar
    54    39    34    1
    55    44    40   ar
    56    51    46   ar
    57    18    20    1
    58    44    45    1
