@<TRIPOS>MOLECULE
*****
 26 29 0 0 0
SMALL
GASTEIGER

@<TRIPOS>ATOM
      1 C         137.7427  138.3747  166.7283 C.3     1  UNL1        0.0307
      2 C         138.9195  138.5413  165.8132 C.ar    1  UNL1       -0.0242
      3 C         138.9275  137.8701  164.4719 C.ar    1  UNL1        0.0161
      4 C         140.1044  138.0367  163.5568 C.ar    1  UNL1        0.0983
      5 N         140.3937  137.5007  162.1860 N.ar    1  UNL1       -0.2268
      6 C         141.7414  138.0073  161.7652 C.ar    1  UNL1        0.1441
      7 N         142.2850  138.8564  162.8759 N.ar    1  UNL1       -0.3072
      8 C         141.2732  138.8746  163.9832 C.ar    1  UNL1        0.0788
      9 C         141.2652  139.5458  165.3245 C.ar    1  UNL1        0.0142
     10 C         140.0884  139.3792  166.2396 C.ar    1  UNL1       -0.0243
     11 C         140.0804  140.0505  167.5810 C.3     1  UNL1        0.0307
     12 C         142.4255  137.7159  160.4624 C.2     1  UNL1        0.0376
     13 C         141.8901  138.2975  159.1877 C.2     1  UNL1        0.0096
     14 C         142.5742  138.0061  157.8850 C.ar    1  UNL1        0.0296
     15 C         142.8502  136.6447  157.3192 C.ar    1  UNL1        0.0070
     16 C         143.5490  136.8222  156.0039 C.ar    1  UNL1        0.0075
     17 C         143.7049  138.2934  155.7567 C.ar    1  UNL1        0.0354
     18 S         143.1024  139.0252  156.9193 S.2     1  UNL1       -0.0864
     19 C         143.6080  139.5632  162.8788 C.3     1  UNL1        0.1342
     20 C         143.6775  141.0233  163.2150 C.ar    1  UNL1        0.0005
     21 C         142.9611  142.0251  162.3587 C.ar    1  UNL1       -0.0015
     22 C         143.0306  143.4853  162.6948 C.ar    1  UNL1        0.0111
     23 C         143.8165  143.9438  163.8873 C.ar    1  UNL1        0.0577
     24 CL        143.8861  145.4040  164.2234 Cl      1  UNL1       -0.0822
     25 C         144.5330  142.9422  164.7437 C.ar    1  UNL1        0.0111
     26 C         144.4634  141.4819  164.4075 C.ar    1  UNL1       -0.0015
@<TRIPOS>BOND
     1     1     2    1
     2     2     3   ar
     3     3     4   ar
     4     4     5   ar
     5     5     6   ar
     6     6    12    1
     7    12    13    2
     8    13    14    1
     9    14    15   ar
    10    15    16   ar
    11    16    17   ar
    12    17    18   ar
    13     6     7   ar
    14     7    19    1
    15    19    20    1
    16    20    21   ar
    17    21    22   ar
    18    22    23   ar
    19    23    24    1
    20    23    25   ar
    21    25    26   ar
    22     7     8   ar
    23     8     9   ar
    24     9    10   ar
    25    10    11    1
    26    10     2   ar
    27     8     4   ar
    28    18    14   ar
    29    26    20   ar
@<TRIPOS>MOLECULE
*****
 26 29 0 0 0
SMALL
GASTEIGER

@<TRIPOS>ATOM
      1 C         142.7520  143.2967  170.5661 C.3     1  UNL1        0.0307
      2 C         142.1876  142.4282  169.4812 C.ar    1  UNL1       -0.0242
      3 C         143.0407  142.0424  168.3093 C.ar    1  UNL1        0.0161
      4 C         142.4764  141.1738  167.2244 C.ar    1  UNL1        0.0983
      5 N         143.0730  140.6343  165.9582 N.ar    1  UNL1       -0.2268
      6 C         142.0242  139.8180  165.2627 C.ar    1  UNL1        0.1441
      7 N         140.7794  139.8531  166.0990 N.ar    1  UNL1       -0.3072
      8 C         141.0589  140.6911  167.3113 C.ar    1  UNL1        0.0788
      9 C         140.2058  141.0768  168.4832 C.ar    1  UNL1        0.0142
     10 C         140.7702  141.9454  169.5681 C.ar    1  UNL1       -0.0243
     11 C         139.9170  142.3312  170.7400 C.3     1  UNL1        0.0307
     12 C         142.1909  139.0938  163.9597 C.2     1  UNL1        0.0376
     13 C         141.9234  139.8053  162.6666 C.2     1  UNL1        0.0096
     14 C         142.0901  139.0811  161.3637 C.ar    1  UNL1        0.0296
     15 C         141.2347  139.2531  160.1436 C.ar    1  UNL1        0.0070
     16 C         141.7574  138.3360  159.0780 C.ar    1  UNL1        0.0075
     17 C         142.9359  137.5972  159.6394 C.ar    1  UNL1        0.0354
     18 S         143.1415  138.0576  161.0522 S.2     1  UNL1       -0.0864
     19 C         139.4828  139.1702  165.7791 C.3     1  UNL1        0.1342
     20 C         138.8863  139.2973  164.4087 C.ar    1  UNL1        0.0005
     21 C         138.3797  140.6261  163.9314 C.ar    1  UNL1       -0.0015
     22 C         137.7832  140.7532  162.5611 C.ar    1  UNL1        0.0111
     23 C         137.6932  139.5516  161.6678 C.ar    1  UNL1        0.0577
     24 CL        137.0967  139.6786  160.2974 Cl      1  UNL1       -0.0822
     25 C         138.1998  138.2227  162.1449 C.ar    1  UNL1        0.0111
     26 C         138.7963  138.0956  163.5154 C.ar    1  UNL1       -0.0015
@<TRIPOS>BOND
     1     1     2    1
     2     2     3   ar
     3     3     4   ar
     4     4     5   ar
     5     5     6   ar
     6     6    12    1
     7    12    13    2
     8    13    14    1
     9    14    15   ar
    10    15    16   ar
    11    16    17   ar
    12    17    18   ar
    13     6     7   ar
    14     7    19    1
    15    19    20    1
    16    20    21   ar
    17    21    22   ar
    18    22    23   ar
    19    23    24    1
    20    23    25   ar
    21    25    26   ar
    22     7     8   ar
    23     8     9   ar
    24     9    10   ar
    25    10    11    1
    26    10     2   ar
    27     8     4   ar
    28    18    14   ar
    29    26    20   ar
@<TRIPOS>MOLECULE
*****
 26 29 0 0 0
SMALL
GASTEIGER

@<TRIPOS>ATOM
      1 C         142.2614  139.5506  169.5893 C.3     1  UNL1        0.0307
      2 C         142.6227  140.1000  168.2410 C.ar    1  UNL1       -0.0242
      3 C         142.7318  139.1803  167.0611 C.ar    1  UNL1        0.0161
      4 C         143.0931  139.7296  165.7129 C.ar    1  UNL1        0.0983
      5 N         143.2735  139.0723  164.3767 N.ar    1  UNL1       -0.2268
      6 C         143.6372  140.1350  163.3826 C.ar    1  UNL1        0.1441
      7 N         143.6817  141.4492  164.1045 N.ar    1  UNL1       -0.3072
      8 C         143.3454  141.1986  165.5446 C.ar    1  UNL1        0.0788
      9 C         143.2364  142.1183  166.7246 C.ar    1  UNL1        0.0142
     10 C         142.8750  141.5690  168.0728 C.ar    1  UNL1       -0.0243
     11 C         142.7659  142.4887  169.2528 C.3     1  UNL1        0.0307
     12 C         143.9089  139.9212  161.9229 C.2     1  UNL1        0.0376
     13 C         142.7972  140.0584  160.9253 C.2     1  UNL1        0.0096
     14 C         143.0689  139.8446  159.4657 C.ar    1  UNL1        0.0296
     15 C         142.6185  138.6707  158.6478 C.ar    1  UNL1        0.0070
     16 C         143.1099  138.8678  157.2443 C.ar    1  UNL1        0.0075
     17 C         143.8640  140.1635  157.1949 C.ar    1  UNL1        0.0354
     18 S         143.8387  140.7673  158.5678 S.2     1  UNL1       -0.0864
     19 C         144.0055  142.7803  163.4934 C.3     1  UNL1        0.1342
     20 C         142.9005  143.6757  163.0172 C.ar    1  UNL1        0.0005
     21 C         142.0844  144.4519  164.0080 C.ar    1  UNL1       -0.0015
     22 C         140.9793  145.3474  163.5318 C.ar    1  UNL1        0.0111
     23 C         140.6902  145.4668  162.0648 C.ar    1  UNL1        0.0577
     24 CL        139.5851  146.3623  161.5885 Cl      1  UNL1       -0.0822
     25 C         141.5062  144.6908  161.0739 C.ar    1  UNL1        0.0111
     26 C         142.6114  143.7952  161.5501 C.ar    1  UNL1       -0.0015
@<TRIPOS>BOND
     1     1     2    1
     2     2     3   ar
     3     3     4   ar
     4     4     5   ar
     5     5     6   ar
     6     6    12    1
     7    12    13    2
     8    13    14    1
     9    14    15   ar
    10    15    16   ar
    11    16    17   ar
    12    17    18   ar
    13     6     7   ar
    14     7    19    1
    15    19    20    1
    16    20    21   ar
    17    21    22   ar
    18    22    23   ar
    19    23    24    1
    20    23    25   ar
    21    25    26   ar
    22     7     8   ar
    23     8     9   ar
    24     9    10   ar
    25    10    11    1
    26    10     2   ar
    27     8     4   ar
    28    18    14   ar
    29    26    20   ar
@<TRIPOS>MOLECULE
*****
 26 29 0 0 0
SMALL
GASTEIGER

@<TRIPOS>ATOM
      1 C         142.8931  142.7311  170.8775 C.3     1  UNL1        0.0307
      2 C         142.2970  142.3614  169.5517 C.ar    1  UNL1       -0.0242
      3 C         142.9757  141.3456  168.6813 C.ar    1  UNL1        0.0161
      4 C         142.3795  140.9759  167.3554 C.ar    1  UNL1        0.0983
      5 N         142.8189  140.0155  166.2902 N.ar    1  UNL1       -0.2268
      6 C         141.8155  140.0680  165.1764 C.ar    1  UNL1        0.1441
      7 N         140.7561  141.0608  165.5533 N.ar    1  UNL1       -0.3072
      8 C         141.1047  141.6219  166.9000 C.ar    1  UNL1        0.0788
      9 C         140.4260  142.6376  167.7704 C.ar    1  UNL1        0.0142
     10 C         141.0222  143.0073  169.0962 C.ar    1  UNL1       -0.0243
     11 C         140.3434  144.0231  169.9667 C.3     1  UNL1        0.0307
     12 C         141.8631  139.2681  163.9083 C.2     1  UNL1        0.0376
     13 C         142.3197  139.9113  162.6325 C.2     1  UNL1        0.0096
     14 C         142.3673  139.1114  161.3645 C.ar    1  UNL1        0.0296
     15 C         143.2827  137.9568  161.0843 C.ar    1  UNL1        0.0070
     16 C         142.9890  137.4575  159.7007 C.ar    1  UNL1        0.0075
     17 C         141.8920  138.3036  159.1258 C.ar    1  UNL1        0.0354
     18 S         141.5077  139.3259  160.1541 S.2     1  UNL1       -0.0864
     19 C         139.5584  141.4280  164.7283 C.3     1  UNL1        0.1342
     20 C         139.5478  142.7108  163.9510 C.ar    1  UNL1        0.0005
     21 C         138.2456  143.3836  163.6317 C.ar    1  UNL1       -0.0015
     22 C         138.2349  144.6664  162.8544 C.ar    1  UNL1        0.0111
     23 C         139.5263  145.2765  162.3963 C.ar    1  UNL1        0.0577
     24 CL        139.5157  146.5593  161.6189 Cl      1  UNL1       -0.0822
     25 C         140.8285  144.6038  162.7154 C.ar    1  UNL1        0.0111
     26 C         140.8392  143.3209  163.4928 C.ar    1  UNL1       -0.0015
@<TRIPOS>BOND
     1     1     2    1
     2     2     3   ar
     3     3     4   ar
     4     4     5   ar
     5     5     6   ar
     6     6    12    1
     7    12    13    2
     8    13    14    1
     9    14    15   ar
    10    15    16   ar
    11    16    17   ar
    12    17    18   ar
    13     6     7   ar
    14     7    19    1
    15    19    20    1
    16    20    21   ar
    17    21    22   ar
    18    22    23   ar
    19    23    24    1
    20    23    25   ar
    21    25    26   ar
    22     7     8   ar
    23     8     9   ar
    24     9    10   ar
    25    10    11    1
    26    10     2   ar
    27     8     4   ar
    28    18    14   ar
    29    26    20   ar
@<TRIPOS>MOLECULE
*****
 26 29 0 0 0
SMALL
GASTEIGER

@<TRIPOS>ATOM
      1 C         135.9645  142.2515  154.2875 C.3     1  UNL1        0.0307
      2 C         136.7496  142.2734  155.5654 C.ar    1  UNL1       -0.0242
      3 C         136.6896  141.1039  156.5028 C.ar    1  UNL1        0.0161
      4 C         137.4747  141.1259  157.7807 C.ar    1  UNL1        0.0983
      5 N         137.6116  140.1275  158.8918 N.ar    1  UNL1       -0.2268
      6 C         138.5415  140.7020  159.9191 C.ar    1  UNL1        0.1441
      7 N         138.9793  142.0554  159.4429 N.ar    1  UNL1       -0.3072
      8 C         138.3200  142.3173  158.1212 C.ar    1  UNL1        0.0788
      9 C         138.3800  143.4868  157.1839 C.ar    1  UNL1        0.0142
     10 C         137.5949  143.4649  155.9060 C.ar    1  UNL1       -0.0243
     11 C         137.6550  144.6344  154.9686 C.3     1  UNL1        0.0307
     12 C         138.9602  140.0395  161.1981 C.2     1  UNL1        0.0376
     13 C         137.9723  139.8720  162.3143 C.2     1  UNL1        0.0096
     14 C         138.3909  139.2095  163.5933 C.ar    1  UNL1        0.0296
     15 C         138.8914  137.8026  163.7347 C.ar    1  UNL1        0.0070
     16 C         139.1924  137.5611  165.1842 C.ar    1  UNL1        0.0075
     17 C         138.8780  138.8188  165.9386 C.ar    1  UNL1        0.0354
     18 S         138.3826  139.8377  164.9554 S.2     1  UNL1       -0.0864
     19 C         139.9125  142.9838  160.1620 C.3     1  UNL1        0.1342
     20 C         139.5536  143.5022  161.5229 C.ar    1  UNL1        0.0005
     21 C         140.6334  143.9400  162.4676 C.ar    1  UNL1       -0.0015
     22 C         140.2746  144.4585  163.8286 C.ar    1  UNL1        0.0111
     23 C         138.8358  144.5392  164.2451 C.ar    1  UNL1        0.0577
     24 CL        138.4769  145.0576  165.6061 Cl      1  UNL1       -0.0822
     25 C         137.7559  144.1014  163.3005 C.ar    1  UNL1        0.0111
     26 C         138.1148  143.5829  161.9394 C.ar    1  UNL1       -0.0015
@<TRIPOS>BOND
     1     1     2    1
     2     2     3   ar
     3     3     4   ar
     4     4     5   ar
     5     5     6   ar
     6     6    12    1
     7    12    13    2
     8    13    14    1
     9    14    15   ar
    10    15    16   ar
    11    16    17   ar
    12    17    18   ar
    13     6     7   ar
    14     7    19    1
    15    19    20    1
    16    20    21   ar
    17    21    22   ar
    18    22    23   ar
    19    23    24    1
    20    23    25   ar
    21    25    26   ar
    22     7     8   ar
    23     8     9   ar
    24     9    10   ar
    25    10    11    1
    26    10     2   ar
    27     8     4   ar
    28    18    14   ar
    29    26    20   ar
@<TRIPOS>MOLECULE
*****
 26 29 0 0 0
SMALL
GASTEIGER

@<TRIPOS>ATOM
      1 C         138.9724  140.6260  170.2179 C.3     1  UNL1        0.0307
      2 C         139.6715  140.8000  168.9022 C.ar    1  UNL1       -0.0242
      3 C         139.6853  139.6785  167.9061 C.ar    1  UNL1        0.0161
      4 C         140.3844  139.8525  166.5904 C.ar    1  UNL1        0.0983
      5 N         140.5640  138.9318  165.4199 N.ar    1  UNL1       -0.2268
      6 C         141.3603  139.6584  164.3768 C.ar    1  UNL1        0.1441
      7 N         141.6728  141.0280  164.9026 N.ar    1  UNL1       -0.3072
      8 C         141.0696  141.1480  166.2708 C.ar    1  UNL1        0.0788
      9 C         141.0558  142.2694  167.2668 C.ar    1  UNL1        0.0142
     10 C         140.3567  142.0954  168.5825 C.ar    1  UNL1       -0.0243
     11 C         140.3430  143.2170  169.5785 C.3     1  UNL1        0.0307
     12 C         141.7719  139.1113  163.0420 C.2     1  UNL1        0.0376
     13 C         140.9842  139.4589  161.8138 C.2     1  UNL1        0.0096
     14 C         141.3958  138.9119  160.4791 C.ar    1  UNL1        0.0296
     15 C         142.6993  138.2390  160.1661 C.ar    1  UNL1        0.0070
     16 C         142.6853  137.8529  158.7167 C.ar    1  UNL1        0.0075
     17 C         141.3731  138.2873  158.1340 C.ar    1  UNL1        0.0354
     18 S         140.5761  138.9418  159.2232 S.2     1  UNL1       -0.0864
     19 C         142.4516  142.0910  164.1862 C.3     1  UNL1        0.1342
     20 C         141.7317  143.2069  163.4888 C.ar    1  UNL1        0.0005
     21 C         142.0000  143.4820  162.0388 C.ar    1  UNL1       -0.0015
     22 C         141.2801  144.5979  161.3413 C.ar    1  UNL1        0.0111
     23 C         140.2918  145.4387  162.0938 C.ar    1  UNL1        0.0577
     24 CL        139.5718  146.5546  161.3964 Cl      1  UNL1       -0.0822
     25 C         140.0234  145.1636  163.5438 C.ar    1  UNL1        0.0111
     26 C         140.7434  144.0477  164.2413 C.ar    1  UNL1       -0.0015
@<TRIPOS>BOND
     1     1     2    1
     2     2     3   ar
     3     3     4   ar
     4     4     5   ar
     5     5     6   ar
     6     6    12    1
     7    12    13    2
     8    13    14    1
     9    14    15   ar
    10    15    16   ar
    11    16    17   ar
    12    17    18   ar
    13     6     7   ar
    14     7    19    1
    15    19    20    1
    16    20    21   ar
    17    21    22   ar
    18    22    23   ar
    19    23    24    1
    20    23    25   ar
    21    25    26   ar
    22     7     8   ar
    23     8     9   ar
    24     9    10   ar
    25    10    11    1
    26    10     2   ar
    27     8     4   ar
    28    18    14   ar
    29    26    20   ar
@<TRIPOS>MOLECULE
*****
 26 29 0 0 0
SMALL
GASTEIGER

@<TRIPOS>ATOM
      1 C         141.0798  145.8711  158.5677 C.3     1  UNL1        0.0307
      2 C         140.8492  144.9236  159.7074 C.ar    1  UNL1       -0.0242
      3 C         140.5868  145.4568  161.0846 C.ar    1  UNL1        0.0161
      4 C         140.3561  144.5093  162.2244 C.ar    1  UNL1        0.0983
      5 N         140.0756  144.7395  163.6799 N.ar    1  UNL1       -0.2268
      6 C         139.9340  143.4010  164.3419 C.ar    1  UNL1        0.1441
      7 N         140.1270  142.3436  163.2956 N.ar    1  UNL1       -0.3072
      8 C         140.3879  143.0286  161.9870 C.ar    1  UNL1        0.0788
      9 C         140.6503  142.4954  160.6097 C.ar    1  UNL1        0.0142
     10 C         140.8809  143.4429  159.4700 C.ar    1  UNL1       -0.0243
     11 C         141.1433  142.9096  158.0927 C.3     1  UNL1        0.0307
     12 C         139.6493  143.1618  165.7952 C.2     1  UNL1        0.0376
     13 C         140.7451  142.6959  166.7073 C.2     1  UNL1        0.0096
     14 C         140.4604  142.4567  168.1605 C.ar    1  UNL1        0.0296
     15 C         140.3630  143.5092  169.2247 C.ar    1  UNL1        0.0070
     16 C         140.0655  142.8260  170.5265 C.ar    1  UNL1        0.0075
     17 C         139.9791  141.3512  170.2668 C.ar    1  UNL1        0.0354
     18 S         140.2232  141.1229  168.8044 S.2     1  UNL1       -0.0864
     19 C         140.0692  140.8614  163.5188 C.3     1  UNL1        0.1342
     20 C         141.2045  140.1615  164.2051 C.ar    1  UNL1        0.0005
     21 C         140.9536  139.3760  165.4582 C.ar    1  UNL1       -0.0015
     22 C         142.0889  138.6759  166.1446 C.ar    1  UNL1        0.0111
     23 C         143.4751  138.7614  165.5780 C.ar    1  UNL1        0.0577
     24 CL        144.6104  138.0614  166.2643 Cl      1  UNL1       -0.0822
     25 C         143.7261  139.5468  164.3249 C.ar    1  UNL1        0.0111
     26 C         142.5907  140.2469  163.6385 C.ar    1  UNL1       -0.0015
@<TRIPOS>BOND
     1     1     2    1
     2     2     3   ar
     3     3     4   ar
     4     4     5   ar
     5     5     6   ar
     6     6    12    1
     7    12    13    2
     8    13    14    1
     9    14    15   ar
    10    15    16   ar
    11    16    17   ar
    12    17    18   ar
    13     6     7   ar
    14     7    19    1
    15    19    20    1
    16    20    21   ar
    17    21    22   ar
    18    22    23   ar
    19    23    24    1
    20    23    25   ar
    21    25    26   ar
    22     7     8   ar
    23     8     9   ar
    24     9    10   ar
    25    10    11    1
    26    10     2   ar
    27     8     4   ar
    28    18    14   ar
    29    26    20   ar
@<TRIPOS>MOLECULE
*****
 26 29 0 0 0
SMALL
GASTEIGER

@<TRIPOS>ATOM
      1 C         140.3313  145.7619  158.3730 C.3     1  UNL1        0.0307
      2 C         140.5686  144.6929  159.3981 C.ar    1  UNL1       -0.0242
      3 C         141.1775  145.0458  160.7227 C.ar    1  UNL1        0.0161
      4 C         141.4148  143.9767  161.7478 C.ar    1  UNL1        0.0983
      5 N         141.9943  144.0230  163.1306 N.ar    1  UNL1       -0.2268
      6 C         141.9808  142.6296  163.6856 C.ar    1  UNL1        0.1441
      7 N         141.3930  141.7221  162.6459 N.ar    1  UNL1       -0.3072
      8 C         141.0432  142.5547  161.4482 C.ar    1  UNL1        0.0788
      9 C         140.4343  142.2018  160.1236 C.ar    1  UNL1        0.0142
     10 C         140.1970  143.2709  159.0986 C.ar    1  UNL1       -0.0243
     11 C         139.5880  142.9179  157.7739 C.3     1  UNL1        0.0307
     12 C         142.4694  142.2161  165.0423 C.2     1  UNL1        0.0376
     13 C         141.5332  142.2338  166.2141 C.2     1  UNL1        0.0096
     14 C         142.0218  141.8203  167.5706 C.ar    1  UNL1        0.0296
     15 C         143.2342  142.3564  168.2723 C.ar    1  UNL1        0.0070
     16 C         143.3455  141.6656  169.5990 C.ar    1  UNL1        0.0075
     17 C         142.2017  140.7024  169.7174 C.ar    1  UNL1        0.0354
     18 S         141.3835  140.7980  168.4637 S.2     1  UNL1       -0.0864
     19 C         141.1905  140.2419  162.7802 C.3     1  UNL1        0.1342
     20 C         140.2555  139.7043  163.8226 C.ar    1  UNL1        0.0005
     21 C         139.0897  140.5292  164.2816 C.ar    1  UNL1       -0.0015
     22 C         138.1547  139.9917  165.3240 C.ar    1  UNL1        0.0111
     23 C         138.3853  138.6292  165.9075 C.ar    1  UNL1        0.0577
     24 CL        137.4502  138.0916  166.9499 Cl      1  UNL1       -0.0822
     25 C         139.5510  137.8043  165.4485 C.ar    1  UNL1        0.0111
     26 C         140.4861  138.3418  164.4061 C.ar    1  UNL1       -0.0015
@<TRIPOS>BOND
     1     1     2    1
     2     2     3   ar
     3     3     4   ar
     4     4     5   ar
     5     5     6   ar
     6     6    12    1
     7    12    13    2
     8    13    14    1
     9    14    15   ar
    10    15    16   ar
    11    16    17   ar
    12    17    18   ar
    13     6     7   ar
    14     7    19    1
    15    19    20    1
    16    20    21   ar
    17    21    22   ar
    18    22    23   ar
    19    23    24    1
    20    23    25   ar
    21    25    26   ar
    22     7     8   ar
    23     8     9   ar
    24     9    10   ar
    25    10    11    1
    26    10     2   ar
    27     8     4   ar
    28    18    14   ar
    29    26    20   ar
@<TRIPOS>MOLECULE
*****
 26 29 0 0 0
SMALL
GASTEIGER

@<TRIPOS>ATOM
      1 C         140.8221  145.9402  157.4616 C.3     1  UNL1        0.0307
      2 C         140.3473  145.0677  158.5856 C.ar    1  UNL1       -0.0242
      3 C         140.6245  145.4585  160.0070 C.ar    1  UNL1        0.0161
      4 C         140.1498  144.5860  161.1310 C.ar    1  UNL1        0.0983
      5 N         140.2737  144.7120  162.6206 N.ar    1  UNL1       -0.2268
      6 C         139.5983  143.5265  163.2438 C.ar    1  UNL1        0.1441
      7 N         139.0569  142.6679  162.1393 N.ar    1  UNL1       -0.3072
      8 C         139.3977  143.3227  160.8336 C.ar    1  UNL1        0.0788
      9 C         139.1205  142.9319  159.4122 C.ar    1  UNL1        0.0142
     10 C         139.5953  143.8044  158.2882 C.ar    1  UNL1       -0.0243
     11 C         139.3181  143.4135  156.8668 C.3     1  UNL1        0.0307
     12 C         139.4842  143.2484  164.7134 C.2     1  UNL1        0.0376
     13 C         140.4048  142.2582  165.3630 C.2     1  UNL1        0.0096
     14 C         140.2907  141.9801  166.8325 C.ar    1  UNL1        0.0296
     15 C         140.5044  142.9724  167.9368 C.ar    1  UNL1        0.0070
     16 C         140.2886  142.2665  169.2426 C.ar    1  UNL1        0.0075
     17 C         139.9415  140.8378  168.9453 C.ar    1  UNL1        0.0354
     18 S         139.9427  140.6608  167.4557 S.2     1  UNL1       -0.0864
     19 C         138.3065  141.3804  162.3106 C.3     1  UNL1        0.1342
     20 C         139.0020  140.1758  162.8718 C.ar    1  UNL1        0.0005
     21 C         140.2983  139.7127  162.2759 C.ar    1  UNL1       -0.0015
     22 C         140.9939  138.5081  162.8371 C.ar    1  UNL1        0.0111
     23 C         140.3931  137.7664  163.9943 C.ar    1  UNL1        0.0577
     24 CL        141.0886  136.5618  164.5555 Cl      1  UNL1       -0.0822
     25 C         139.0968  138.2294  164.5902 C.ar    1  UNL1        0.0111
     26 C         138.4012  139.4341  164.0290 C.ar    1  UNL1       -0.0015
@<TRIPOS>BOND
     1     1     2    1
     2     2     3   ar
     3     3     4   ar
     4     4     5   ar
     5     5     6   ar
     6     6    12    1
     7    12    13    2
     8    13    14    1
     9    14    15   ar
    10    15    16   ar
    11    16    17   ar
    12    17    18   ar
    13     6     7   ar
    14     7    19    1
    15    19    20    1
    16    20    21   ar
    17    21    22   ar
    18    22    23   ar
    19    23    24    1
    20    23    25   ar
    21    25    26   ar
    22     7     8   ar
    23     8     9   ar
    24     9    10   ar
    25    10    11    1
    26    10     2   ar
    27     8     4   ar
    28    18    14   ar
    29    26    20   ar
