@<TRIPOS>MOLECULE
*****
 37 41 0 0 0
SMALL
GASTEIGER

@<TRIPOS>ATOM
      1 C         138.6482  139.1675  165.7188 C.3     1  UNL1        0.0061
      2 C         139.5343  138.2808  164.8952 C.3     1  UNL1        0.0177
      3 C         139.0432  137.7367  163.5865 C.3     1  UNL1        0.0722
      4 N         141.4589  138.3608  159.8415 N.pl3   1  UNL1       -0.3035
      5 C         142.1237  137.8546  161.0871 C.3     1  UNL1        0.1082
      6 C         141.3185  137.6466  162.3355 C.3     1  UNL1        0.0938
      7 N         139.8484  137.9447  162.3381 N.3     1  UNL1       -0.2698
      8 C         139.1836  138.4510  161.0925 C.3     1  UNL1        0.0938
      9 C         139.9888  138.6590  159.8442 C.3     1  UNL1        0.1082
     10 C         144.8014  142.2577  158.1409 C.ar    1  UNL1        0.0207
     11 C         143.9962  142.0497  159.3892 C.ar    1  UNL1        0.0989
     12 N         143.1504  140.8201  159.5400 N.ar    1  UNL1       -0.2426
     13 C         143.1099  139.7985  158.4424 C.ar    1  UNL1        0.0945
     14 C         142.2641  138.5689  158.5932 C.ar    1  UNL1        0.0658
     15 C         142.2235  137.5473  157.4956 C.ar    1  UNL1        0.0160
     16 C         143.0287  137.7553  156.2472 C.ar    1  UNL1        0.0014
     17 C         143.8745  138.9850  156.0964 C.ar    1  UNL1        0.0016
     18 C         143.9151  140.0066  157.1941 C.ar    1  UNL1        0.0189
     19 C         144.7608  141.2362  157.0433 C.ar    1  UNL1        0.0031
     20 C         139.1412  140.5107  166.1690 C.3     1  UNL1        0.0264
     21 C         138.9674  141.7089  165.2836 C.ar    1  UNL1       -0.0220
     22 C         139.6236  143.0089  165.6433 C.ar    1  UNL1       -0.0012
     23 C         139.4498  144.2071  164.7577 C.ar    1  UNL1        0.0366
     24 C         138.6196  144.1053  163.5125 C.ar    1  UNL1        0.1385
     25 C         137.9634  142.8053  163.1528 C.ar    1  UNL1        0.0366
     26 C         138.1372  141.6072  164.0383 C.ar    1  UNL1       -0.0012
     27 O         138.4458  145.3035  162.6271 O.3     1  UNL1       -0.4754
     28 C         139.5886  145.7842  161.7827 C.3     1  UNL1        0.2068
     29 C         140.3599  144.8116  160.9405 C.3     1  UNL1        0.0646
     30 C         141.7970  144.5207  161.2567 C.3     1  UNL1        0.0759
     31 N         142.1446  143.6105  162.3972 N.3     1  UNL1       -0.2726
     32 C         142.9550  144.2274  163.4985 C.3     1  UNL1        0.0721
     33 C         143.4568  143.5899  164.7601 C.3     1  UNL1        0.0173
     34 C         143.2721  142.1781  165.2321 C.3     1  UNL1        0.0015
     35 C         142.5401  141.0552  164.5591 C.3     1  UNL1        0.0015
     36 C         141.8119  141.0666  163.2478 C.3     1  UNL1        0.0173
     37 C         141.6359  142.2039  162.2856 C.3     1  UNL1        0.0721
@<TRIPOS>BOND
     1    10    11   ar
     2    11    12   ar
     3    12    13   ar
     4    13    14   ar
     5    14     4    1
     6     4     5    1
     7     5     6    1
     8     6     7    1
     9     7     3    1
    10     3     2    1
    11     2     1    1
    12     1    20    1
    13    20    21    1
    14    21    22   ar
    15    22    23   ar
    16    23    24   ar
    17    24    27    1
    18    27    28    1
    19    28    29    1
    20    29    30    1
    21    30    31    1
    22    31    32    1
    23    32    33    1
    24    33    34    1
    25    34    35    1
    26    35    36    1
    27    36    37    1
    28    24    25   ar
    29    25    26   ar
    30     7     8    1
    31     8     9    1
    32    14    15   ar
    33    15    16   ar
    34    16    17   ar
    35    17    18   ar
    36    18    19   ar
    37    19    10   ar
    38    18    13   ar
    39     9     4    1
    40    26    21   ar
    41    37    31    1
@<TRIPOS>MOLECULE
*****
 37 41 0 0 0
SMALL
GASTEIGER

@<TRIPOS>ATOM
      1 C         138.2410  139.0595  166.2339 C.3     1  UNL1        0.0061
      2 C         138.4637  137.7035  165.6327 C.3     1  UNL1        0.0177
      3 C         139.6719  137.4500  164.7806 C.3     1  UNL1        0.0722
      4 N         139.7085  138.7709  160.4789 N.pl3   1  UNL1       -0.3035
      5 C         141.0010  138.5177  161.1967 C.3     1  UNL1        0.1082
      6 C         140.9888  138.0774  162.6307 C.3     1  UNL1        0.0938
      7 N         139.6841  137.8903  163.3467 N.3     1  UNL1       -0.2698
      8 C         138.3916  138.1436  162.6289 C.3     1  UNL1        0.0938
      9 C         138.4037  138.5838  161.1950 C.3     1  UNL1        0.1082
     10 C         139.4739  143.5891  158.0335 C.ar    1  UNL1        0.0207
     11 C         139.4617  143.1488  159.4673 C.ar    1  UNL1        0.0989
     12 N         139.5440  141.6895  159.8045 N.ar    1  UNL1       -0.2426
     13 C         139.6384  140.6705  158.7079 C.ar    1  UNL1        0.0945
     14 C         139.7207  139.2112  159.0451 C.ar    1  UNL1        0.0658
     15 C         139.8151  138.1922  157.9484 C.ar    1  UNL1        0.0160
     16 C         139.8272  138.6325  156.5145 C.ar    1  UNL1        0.0014
     17 C         139.7450  140.0918  156.1773 C.ar    1  UNL1        0.0016
     18 C         139.6506  141.1108  157.2740 C.ar    1  UNL1        0.0189
     19 C         139.5683  142.5701  156.9368 C.ar    1  UNL1        0.0031
     20 C         139.1126  139.5334  167.3590 C.3     1  UNL1        0.0264
     21 C         140.3197  140.3754  167.0691 C.ar    1  UNL1       -0.0220
     22 C         141.6001  139.7262  166.6342 C.ar    1  UNL1       -0.0012
     23 C         142.8072  140.5682  166.3443 C.ar    1  UNL1        0.0366
     24 C         142.7339  142.0593  166.4893 C.ar    1  UNL1        0.1385
     25 C         141.4535  142.7085  166.9242 C.ar    1  UNL1        0.0366
     26 C         140.2464  141.8666  167.2141 C.ar    1  UNL1       -0.0012
     27 O         143.9409  142.9013  166.1994 O.3     1  UNL1       -0.4754
     28 C         144.2508  143.3077  164.7891 C.3     1  UNL1        0.2068
     29 C         143.5512  144.4850  164.1770 C.3     1  UNL1        0.0646
     30 C         142.5069  144.2713  163.1217 C.3     1  UNL1        0.0759
     31 N         141.1466  143.7677  163.5037 N.3     1  UNL1       -0.2726
     32 C         140.2136  144.7892  164.0835 C.3     1  UNL1        0.0721
     33 C         138.8028  144.6044  164.5582 C.3     1  UNL1        0.0173
     34 C         137.9765  143.3526  164.5704 C.3     1  UNL1        0.0015
     35 C         138.3569  141.9763  164.1109 C.3     1  UNL1        0.0015
     36 C         139.6576  141.5119  163.5257 C.3     1  UNL1        0.0173
     37 C         140.8992  142.3092  163.2555 C.3     1  UNL1        0.0721
@<TRIPOS>BOND
     1    10    11   ar
     2    11    12   ar
     3    12    13   ar
     4    13    14   ar
     5    14     4    1
     6     4     5    1
     7     5     6    1
     8     6     7    1
     9     7     3    1
    10     3     2    1
    11     2     1    1
    12     1    20    1
    13    20    21    1
    14    21    22   ar
    15    22    23   ar
    16    23    24   ar
    17    24    27    1
    18    27    28    1
    19    28    29    1
    20    29    30    1
    21    30    31    1
    22    31    32    1
    23    32    33    1
    24    33    34    1
    25    34    35    1
    26    35    36    1
    27    36    37    1
    28    24    25   ar
    29    25    26   ar
    30     7     8    1
    31     8     9    1
    32    14    15   ar
    33    15    16   ar
    34    16    17   ar
    35    17    18   ar
    36    18    19   ar
    37    19    10   ar
    38    18    13   ar
    39     9     4    1
    40    26    21   ar
    41    37    31    1
@<TRIPOS>MOLECULE
*****
 37 41 0 0 0
SMALL
GASTEIGER

@<TRIPOS>ATOM
      1 C         137.7645  138.2401  166.4939 C.3     1  UNL1        0.0061
      2 C         138.2947  139.1809  167.5350 C.3     1  UNL1        0.0177
      3 C         139.5603  139.9448  167.2807 C.3     1  UNL1        0.0722
      4 N         139.7904  142.8361  163.8400 N.pl3   1  UNL1       -0.3035
      5 C         140.9696  142.6576  164.7498 C.3     1  UNL1        0.1082
      6 C         140.8929  141.6938  165.8967 C.3     1  UNL1        0.0938
      7 N         139.6370  140.9086  166.1338 N.3     1  UNL1       -0.2698
      8 C         138.4578  141.0871  165.2240 C.3     1  UNL1        0.0938
      9 C         138.5345  142.0508  164.0771 C.3     1  UNL1        0.1082
     10 C         140.2753  142.2606  158.4843 C.ar    1  UNL1        0.0207
     11 C         140.1986  141.2969  159.6311 C.ar    1  UNL1        0.0989
     12 N         140.0625  141.8100  161.0341 N.ar    1  UNL1       -0.2426
     13 C         140.0032  143.2867  161.2902 C.ar    1  UNL1        0.0945
     14 C         139.8671  143.7998  162.6931 C.ar    1  UNL1        0.0658
     15 C         139.8077  145.2765  162.9492 C.ar    1  UNL1        0.0160
     16 C         139.8844  146.2403  161.8023 C.ar    1  UNL1        0.0014
     17 C         140.0205  145.7273  160.3994 C.ar    1  UNL1        0.0016
     18 C         140.0798  144.2504  160.1433 C.ar    1  UNL1        0.0189
     19 C         140.2159  143.7374  158.7404 C.ar    1  UNL1        0.0031
     20 C         138.6634  137.1979  165.8974 C.3     1  UNL1        0.0264
     21 C         139.4561  137.5089  164.6626 C.ar    1  UNL1       -0.0220
     22 C         138.7499  137.8533  163.3848 C.ar    1  UNL1       -0.0012
     23 C         139.5427  138.1644  162.1500 C.ar    1  UNL1        0.0366
     24 C         141.0416  138.1311  162.1929 C.ar    1  UNL1        0.1385
     25 C         141.7479  137.7867  163.4706 C.ar    1  UNL1        0.0366
     26 C         140.9552  137.4756  164.7055 C.ar    1  UNL1       -0.0012
     27 O         141.8344  138.4421  160.9581 O.3     1  UNL1       -0.4754
     28 C         143.3296  138.3244  160.9773 C.3     1  UNL1        0.2068
     29 C         144.1737  139.5340  161.2499 C.3     1  UNL1        0.0646
     30 C         143.5784  140.9058  161.1331 C.3     1  UNL1        0.0759
     31 N         143.7751  141.9050  162.2344 N.3     1  UNL1       -0.2726
     32 C         143.4763  143.3316  161.8799 C.3     1  UNL1        0.0721
     33 C         143.5732  144.5509  162.7481 C.3     1  UNL1        0.0173
     34 C         143.9928  144.6450  164.1851 C.3     1  UNL1        0.0015
     35 C         144.4192  143.5428  165.1089 C.3     1  UNL1        0.0015
     36 C         144.5312  142.0745  164.8239 C.3     1  UNL1        0.0173
     37 C         144.2446  141.3455  163.5446 C.3     1  UNL1        0.0721
@<TRIPOS>BOND
     1    10    11   ar
     2    11    12   ar
     3    12    13   ar
     4    13    14   ar
     5    14     4    1
     6     4     5    1
     7     5     6    1
     8     6     7    1
     9     7     3    1
    10     3     2    1
    11     2     1    1
    12     1    20    1
    13    20    21    1
    14    21    22   ar
    15    22    23   ar
    16    23    24   ar
    17    24    27    1
    18    27    28    1
    19    28    29    1
    20    29    30    1
    21    30    31    1
    22    31    32    1
    23    32    33    1
    24    33    34    1
    25    34    35    1
    26    35    36    1
    27    36    37    1
    28    24    25   ar
    29    25    26   ar
    30     7     8    1
    31     8     9    1
    32    14    15   ar
    33    15    16   ar
    34    16    17   ar
    35    17    18   ar
    36    18    19   ar
    37    19    10   ar
    38    18    13   ar
    39     9     4    1
    40    26    21   ar
    41    37    31    1
@<TRIPOS>MOLECULE
*****
 37 41 0 0 0
SMALL
GASTEIGER

@<TRIPOS>ATOM
      1 C         139.3297  139.3919  159.6546 C.3     1  UNL1        0.0061
      2 C         138.0218  139.5165  160.3784 C.3     1  UNL1        0.0177
      3 C         137.7254  138.6282  161.5502 C.3     1  UNL1        0.0722
      4 N         139.1114  139.7987  165.6684 N.pl3   1  UNL1       -0.3035
      5 C         138.2939  140.7555  164.8520 C.3     1  UNL1        0.1082
      6 C         137.8319  140.3653  163.4792 C.3     1  UNL1        0.0938
      7 N         138.1874  139.0184  162.9229 N.3     1  UNL1       -0.2698
      8 C         139.0048  138.0617  163.7393 C.3     1  UNL1        0.0938
      9 C         139.4668  138.4518  165.1120 C.3     1  UNL1        0.1082
     10 C         143.4003  142.4998  167.5550 C.ar    1  UNL1        0.0207
     11 C         142.9383  142.1097  166.1823 C.ar    1  UNL1        0.0989
     12 N         141.6626  141.3394  166.0110 N.ar    1  UNL1       -0.2426
     13 C         140.8490  140.9592  167.2124 C.ar    1  UNL1        0.0945
     14 C         139.5733  140.1889  167.0411 C.ar    1  UNL1        0.0658
     15 C         138.7596  139.8087  168.2424 C.ar    1  UNL1        0.0160
     16 C         139.2216  140.1989  169.6152 C.ar    1  UNL1        0.0014
     17 C         140.4972  140.9692  169.7865 C.ar    1  UNL1        0.0016
     18 C         141.3109  141.3493  168.5851 C.ar    1  UNL1        0.0189
     19 C         142.5866  142.1197  168.7564 C.ar    1  UNL1        0.0031
     20 C         140.0278  140.6200  159.1504 C.3     1  UNL1        0.0264
     21 C         140.3434  141.7435  160.0927 C.ar    1  UNL1       -0.0220
     22 C         140.3107  143.1621  159.6062 C.ar    1  UNL1       -0.0012
     23 C         140.6264  144.2856  160.5486 C.ar    1  UNL1        0.0366
     24 C         140.9747  143.9906  161.9775 C.ar    1  UNL1        0.1385
     25 C         141.0074  142.5721  162.4640 C.ar    1  UNL1        0.0366
     26 C         140.6918  141.4485  161.5216 C.ar    1  UNL1       -0.0012
     27 O         141.2903  145.1141  162.9198 O.3     1  UNL1       -0.4754
     28 C         142.5004  145.0350  163.8027 C.3     1  UNL1        0.2068
     29 C         143.8659  144.9116  163.1942 C.3     1  UNL1        0.0646
     30 C         144.6221  143.6209  163.3041 C.3     1  UNL1        0.0759
     31 N         144.3898  142.5279  162.3034 N.3     1  UNL1       -0.2726
     32 C         144.2307  142.9723  160.8795 C.3     1  UNL1        0.0721
     33 C         143.9898  142.1336  159.6595 C.3     1  UNL1        0.0173
     34 C         143.8484  140.6434  159.5619 C.3     1  UNL1        0.0015
     35 C         143.9131  139.6240  160.6603 C.3     1  UNL1        0.0015
     36 C         144.1351  139.8428  162.1275 C.3     1  UNL1        0.0173
     37 C         144.3472  141.1352  162.8588 C.3     1  UNL1        0.0721
@<TRIPOS>BOND
     1    10    11   ar
     2    11    12   ar
     3    12    13   ar
     4    13    14   ar
     5    14     4    1
     6     4     5    1
     7     5     6    1
     8     6     7    1
     9     7     3    1
    10     3     2    1
    11     2     1    1
    12     1    20    1
    13    20    21    1
    14    21    22   ar
    15    22    23   ar
    16    23    24   ar
    17    24    27    1
    18    27    28    1
    19    28    29    1
    20    29    30    1
    21    30    31    1
    22    31    32    1
    23    32    33    1
    24    33    34    1
    25    34    35    1
    26    35    36    1
    27    36    37    1
    28    24    25   ar
    29    25    26   ar
    30     7     8    1
    31     8     9    1
    32    14    15   ar
    33    15    16   ar
    34    16    17   ar
    35    17    18   ar
    36    18    19   ar
    37    19    10   ar
    38    18    13   ar
    39     9     4    1
    40    26    21   ar
    41    37    31    1
@<TRIPOS>MOLECULE
*****
 37 41 0 0 0
SMALL
GASTEIGER

@<TRIPOS>ATOM
      1 C         144.2416  141.5340  159.0423 C.3     1  UNL1        0.0061
      2 C         143.3057  140.4434  159.4721 C.3     1  UNL1        0.0177
      3 C         143.6800  139.5383  160.6082 C.3     1  UNL1        0.0722
      4 N         141.4690  139.8038  164.5187 N.pl3   1  UNL1       -0.3035
      5 C         142.5941  138.8248  164.3582 C.3     1  UNL1        0.1082
      6 C         143.3311  138.7363  163.0547 C.3     1  UNL1        0.0938
      7 N         142.9430  139.6268  161.9117 N.3     1  UNL1       -0.2698
      8 C         141.8180  140.6059  162.0722 C.3     1  UNL1        0.0938
      9 C         141.0810  140.6944  163.3757 C.3     1  UNL1        0.1082
     10 C         142.4110  142.3550  169.1935 C.ar    1  UNL1        0.0207
     11 C         143.1480  142.2665  167.8901 C.ar    1  UNL1        0.0989
     12 N         142.5884  141.4456  166.7663 N.ar    1  UNL1       -0.2426
     13 C         141.2917  140.7132  166.9459 C.ar    1  UNL1        0.0945
     14 C         140.7321  139.8923  165.8221 C.ar    1  UNL1        0.0658
     15 C         139.4354  139.1600  166.0017 C.ar    1  UNL1        0.0160
     16 C         138.6983  139.2485  167.3052 C.ar    1  UNL1        0.0014
     17 C         139.2580  140.0694  168.4290 C.ar    1  UNL1        0.0016
     18 C         140.5547  140.8018  168.2493 C.ar    1  UNL1        0.0189
     19 C         141.1144  141.6226  169.3731 C.ar    1  UNL1        0.0031
     20 C         144.7270  142.5425  160.0410 C.3     1  UNL1        0.0264
     21 C         143.7498  143.2319  160.9463 C.ar    1  UNL1       -0.0220
     22 C         142.4619  143.7655  160.3925 C.ar    1  UNL1       -0.0012
     23 C         141.4847  144.4549  161.2980 C.ar    1  UNL1        0.0366
     24 C         141.7953  144.6107  162.7571 C.ar    1  UNL1        0.1385
     25 C         143.0831  144.0770  163.3109 C.ar    1  UNL1        0.0366
     26 C         144.0603  143.3876  162.4056 C.ar    1  UNL1       -0.0012
     27 O         140.8180  145.3000  163.6625 O.3     1  UNL1       -0.4754
     28 C         139.9161  144.4915  164.5472 C.3     1  UNL1        0.2068
     29 C         138.4352  144.4905  164.3081 C.3     1  UNL1        0.0646
     30 C         137.8967  144.1985  162.9389 C.3     1  UNL1        0.0759
     31 N         137.9652  142.8052  162.3875 N.3     1  UNL1       -0.2726
     32 C         138.4105  142.6916  160.9595 C.3     1  UNL1        0.0721
     33 C         138.5799  141.4545  160.1284 C.3     1  UNL1        0.0173
     34 C         138.3459  140.0255  160.5199 C.3     1  UNL1        0.0015
     35 C         137.8847  139.4807  161.8391 C.3     1  UNL1        0.0015
     36 C         137.5436  140.2302  163.0928 C.3     1  UNL1        0.0173
     37 C         137.5794  141.7099  163.3368 C.3     1  UNL1        0.0721
@<TRIPOS>BOND
     1    10    11   ar
     2    11    12   ar
     3    12    13   ar
     4    13    14   ar
     5    14     4    1
     6     4     5    1
     7     5     6    1
     8     6     7    1
     9     7     3    1
    10     3     2    1
    11     2     1    1
    12     1    20    1
    13    20    21    1
    14    21    22   ar
    15    22    23   ar
    16    23    24   ar
    17    24    27    1
    18    27    28    1
    19    28    29    1
    20    29    30    1
    21    30    31    1
    22    31    32    1
    23    32    33    1
    24    33    34    1
    25    34    35    1
    26    35    36    1
    27    36    37    1
    28    24    25   ar
    29    25    26   ar
    30     7     8    1
    31     8     9    1
    32    14    15   ar
    33    15    16   ar
    34    16    17   ar
    35    17    18   ar
    36    18    19   ar
    37    19    10   ar
    38    18    13   ar
    39     9     4    1
    40    26    21   ar
    41    37    31    1
@<TRIPOS>MOLECULE
*****
 37 41 0 0 0
SMALL
GASTEIGER

@<TRIPOS>ATOM
      1 C         145.3684  142.0043  163.8870 C.3     1  UNL1        0.0061
      2 C         145.1893  140.5160  163.9396 C.3     1  UNL1        0.0177
      3 C         143.8460  139.9117  163.6560 C.3     1  UNL1        0.0722
      4 N         141.5701  141.1176  159.9659 N.pl3   1  UNL1       -0.3035
      5 C         142.9906  140.6495  159.8515 C.3     1  UNL1        0.1082
      6 C         143.7493  140.2476  161.0815 C.3     1  UNL1        0.0938
      7 N         143.0874  140.3137  162.4259 N.3     1  UNL1       -0.2698
      8 C         141.6669  140.7817  162.5404 C.3     1  UNL1        0.0938
      9 C         140.9082  141.1837  161.3104 C.3     1  UNL1        0.1082
     10 C         140.6038  145.8516  157.5358 C.ar    1  UNL1        0.0207
     11 C         141.3624  145.4496  158.7657 C.ar    1  UNL1        0.0989
     12 N         141.4317  144.0056  159.1658 N.ar    1  UNL1       -0.2426
     13 C         140.7423  142.9635  158.3359 C.ar    1  UNL1        0.0945
     14 C         140.8115  141.5195  158.7359 C.ar    1  UNL1        0.0658
     15 C         140.1221  140.4775  157.9060 C.ar    1  UNL1        0.0160
     16 C         139.3634  140.8794  156.6760 C.ar    1  UNL1        0.0014
     17 C         139.2942  142.3234  156.2759 C.ar    1  UNL1        0.0016
     18 C         139.9836  143.3655  157.1059 C.ar    1  UNL1        0.0189
     19 C         139.9144  144.8095  156.7058 C.ar    1  UNL1        0.0031
     20 C         144.7598  142.8710  164.9492 C.3     1  UNL1        0.0264
     21 C         143.2906  143.1721  164.9209 C.ar    1  UNL1       -0.0220
     22 C         142.7456  144.1554  163.9279 C.ar    1  UNL1       -0.0012
     23 C         141.2763  144.4565  163.8996 C.ar    1  UNL1        0.0366
     24 C         140.3522  143.7744  164.8643 C.ar    1  UNL1        0.1385
     25 C         140.8973  142.7911  165.8574 C.ar    1  UNL1        0.0366
     26 C         142.3665  142.4900  165.8857 C.ar    1  UNL1       -0.0012
     27 O         138.8831  144.0755  164.8360 O.3     1  UNL1       -0.4754
     28 C         138.1640  144.1797  163.5238 C.3     1  UNL1        0.2068
     29 C         138.0259  142.9710  162.6462 C.3     1  UNL1        0.0646
     30 C         137.1698  141.8199  163.0844 C.3     1  UNL1        0.0759
     31 N         137.8060  140.5221  163.4857 N.3     1  UNL1       -0.2726
     32 C         138.1647  140.3944  164.9366 C.3     1  UNL1        0.0721
     33 C         138.8054  139.2367  165.6431 C.3     1  UNL1        0.0173
     34 C         139.2456  137.9208  165.0733 C.3     1  UNL1        0.0015
     35 C         139.1538  137.4376  163.6562 C.3     1  UNL1        0.0015
     36 C         138.5992  138.1509  162.4589 C.3     1  UNL1        0.0173
     37 C         137.9994  139.5237  162.3830 C.3     1  UNL1        0.0721
@<TRIPOS>BOND
     1    10    11   ar
     2    11    12   ar
     3    12    13   ar
     4    13    14   ar
     5    14     4    1
     6     4     5    1
     7     5     6    1
     8     6     7    1
     9     7     3    1
    10     3     2    1
    11     2     1    1
    12     1    20    1
    13    20    21    1
    14    21    22   ar
    15    22    23   ar
    16    23    24   ar
    17    24    27    1
    18    27    28    1
    19    28    29    1
    20    29    30    1
    21    30    31    1
    22    31    32    1
    23    32    33    1
    24    33    34    1
    25    34    35    1
    26    35    36    1
    27    36    37    1
    28    24    25   ar
    29    25    26   ar
    30     7     8    1
    31     8     9    1
    32    14    15   ar
    33    15    16   ar
    34    16    17   ar
    35    17    18   ar
    36    18    19   ar
    37    19    10   ar
    38    18    13   ar
    39     9     4    1
    40    26    21   ar
    41    37    31    1
@<TRIPOS>MOLECULE
*****
 37 41 0 0 0
SMALL
GASTEIGER

@<TRIPOS>ATOM
      1 C         138.8836  144.7469  164.5002 C.3     1  UNL1        0.0061
      2 C         137.7264  143.9344  163.9995 C.3     1  UNL1        0.0177
      3 C         137.8442  142.4423  163.9017 C.3     1  UNL1        0.0722
      4 N         140.3378  140.5909  160.6453 N.pl3   1  UNL1       -0.3035
      5 C         139.2160  141.5222  160.2931 C.3     1  UNL1        0.1082
      6 C         138.3847  142.1393  161.3786 C.3     1  UNL1        0.0938
      7 N         138.6754  141.8251  162.8162 N.3     1  UNL1       -0.2698
      8 C         139.7973  140.8938  163.1684 C.3     1  UNL1        0.0938
      9 C         140.6285  140.2767  162.0829 C.3     1  UNL1        0.1082
     10 C         144.7829  142.1434  157.9843 C.ar    1  UNL1        0.0207
     11 C         143.9517  142.7606  159.0697 C.ar    1  UNL1        0.0989
     12 N         142.7471  142.0373  159.5949 N.ar    1  UNL1       -0.2426
     13 C         142.3737  140.6970  159.0347 C.ar    1  UNL1        0.0945
     14 C         141.1690  139.9737  159.5598 C.ar    1  UNL1        0.0658
     15 C         140.7956  138.6334  158.9996 C.ar    1  UNL1        0.0160
     16 C         141.6269  138.0162  157.9141 C.ar    1  UNL1        0.0014
     17 C         142.8315  138.7394  157.3889 C.ar    1  UNL1        0.0016
     18 C         143.2049  140.0798  157.9492 C.ar    1  UNL1        0.0189
     19 C         144.4095  140.8031  157.4241 C.ar    1  UNL1        0.0031
     20 C         140.0891  144.9502  163.6310 C.3     1  UNL1        0.0264
     21 C         141.3148  144.1114  163.8406 C.ar    1  UNL1       -0.0220
     22 C         141.5557  143.4536  165.1670 C.ar    1  UNL1       -0.0012
     23 C         142.7816  142.6148  165.3765 C.ar    1  UNL1        0.0366
     24 C         143.7664  142.4339  164.2597 C.ar    1  UNL1        0.1385
     25 C         143.5255  143.0917  162.9334 C.ar    1  UNL1        0.0366
     26 C         142.2997  143.9304  162.7238 C.ar    1  UNL1       -0.0012
     27 O         144.9922  141.5951  164.4693 O.3     1  UNL1       -0.4754
     28 C         145.0115  140.1673  164.0101 C.3     1  UNL1        0.2068
     29 C         143.7645  139.3372  164.0890 C.3     1  UNL1        0.0646
     30 C         143.2345  138.9050  165.4241 C.3     1  UNL1        0.0759
     31 N         141.7544  138.8128  165.6493 N.3     1  UNL1       -0.2726
     32 C         141.1946  139.7422  166.6852 C.3     1  UNL1        0.0721
     33 C         139.7720  139.8917  167.1364 C.3     1  UNL1        0.0173
     34 C         138.5577  139.1488  166.6633 C.3     1  UNL1        0.0015
     35 C         138.4663  138.0729  165.6221 C.3     1  UNL1        0.0015
     36 C         139.5664  137.4742  164.7968 C.3     1  UNL1        0.0173
     37 C         141.0299  137.8035  164.8089 C.3     1  UNL1        0.0721
@<TRIPOS>BOND
     1    10    11   ar
     2    11    12   ar
     3    12    13   ar
     4    13    14   ar
     5    14     4    1
     6     4     5    1
     7     5     6    1
     8     6     7    1
     9     7     3    1
    10     3     2    1
    11     2     1    1
    12     1    20    1
    13    20    21    1
    14    21    22   ar
    15    22    23   ar
    16    23    24   ar
    17    24    27    1
    18    27    28    1
    19    28    29    1
    20    29    30    1
    21    30    31    1
    22    31    32    1
    23    32    33    1
    24    33    34    1
    25    34    35    1
    26    35    36    1
    27    36    37    1
    28    24    25   ar
    29    25    26   ar
    30     7     8    1
    31     8     9    1
    32    14    15   ar
    33    15    16   ar
    34    16    17   ar
    35    17    18   ar
    36    18    19   ar
    37    19    10   ar
    38    18    13   ar
    39     9     4    1
    40    26    21   ar
    41    37    31    1
@<TRIPOS>MOLECULE
*****
 37 41 0 0 0
SMALL
GASTEIGER

@<TRIPOS>ATOM
      1 C         144.1429  143.7919  165.0685 C.3     1  UNL1        0.0061
      2 C         143.7482  144.9392  164.1866 C.3     1  UNL1        0.0177
      3 C         142.2981  145.2190  163.9240 C.3     1  UNL1        0.0722
      4 N         140.6503  144.8278  159.7548 N.pl3   1  UNL1       -0.3035
      5 C         141.9219  144.1250  160.1276 C.3     1  UNL1        0.1082
      6 C         142.4712  144.2554  161.5174 C.3     1  UNL1        0.0938
      7 N         141.7488  145.0886  162.5342 N.3     1  UNL1       -0.2698
      8 C         140.4772  145.7914  162.1614 C.3     1  UNL1        0.0938
      9 C         139.9279  145.6610  160.7717 C.3     1  UNL1        0.1082
     10 C         137.6299  141.1056  157.2502 C.ar    1  UNL1        0.0207
     11 C         138.1792  141.2360  158.6398 C.ar    1  UNL1        0.0989
     12 N         139.0029  142.4333  159.0115 N.ar    1  UNL1       -0.2426
     13 C         139.2773  143.5001  157.9934 C.ar    1  UNL1        0.0945
     14 C         140.1010  144.6974  158.3651 C.ar    1  UNL1        0.0658
     15 C         140.3754  145.7643  157.3471 C.ar    1  UNL1        0.0160
     16 C         139.8261  145.6339  155.9573 C.ar    1  UNL1        0.0014
     17 C         139.0024  144.4367  155.5857 C.ar    1  UNL1        0.0016
     18 C         138.7280  143.3698  156.6038 C.ar    1  UNL1        0.0189
     19 C         137.9043  142.1725  156.2321 C.ar    1  UNL1        0.0031
     20 C         144.9051  142.6337  164.4963 C.3     1  UNL1        0.0264
     21 C         144.1710  141.4190  164.0110 C.ar    1  UNL1       -0.0220
     22 C         144.7601  140.0548  164.2161 C.ar    1  UNL1       -0.0012
     23 C         144.0258  138.8401  163.7307 C.ar    1  UNL1        0.0366
     24 C         142.7027  138.9896  163.0403 C.ar    1  UNL1        0.1385
     25 C         142.1136  140.3538  162.8351 C.ar    1  UNL1        0.0366
     26 C         142.8477  141.5685  163.3205 C.ar    1  UNL1       -0.0012
     27 O         141.9685  137.7750  162.5549 O.3     1  UNL1       -0.4754
     28 C         141.0278  137.0509  163.4719 C.3     1  UNL1        0.2068
     29 C         139.7180  137.6770  163.8494 C.3     1  UNL1        0.0646
     30 C         139.5026  138.1816  165.2454 C.3     1  UNL1        0.0759
     31 N         140.0041  139.5398  165.6377 N.3     1  UNL1       -0.2726
     32 C         139.1985  140.7011  165.1354 C.3     1  UNL1        0.0721
     33 C         139.4347  142.1665  165.3518 C.3     1  UNL1        0.0173
     34 C         140.5349  142.8325  166.1239 C.3     1  UNL1        0.0015
     35 C         141.6706  142.1975  166.8702 C.3     1  UNL1        0.0015
     36 C         141.9866  140.7398  167.0289 C.3     1  UNL1        0.0173
     37 C         141.2449  139.5570  166.4803 C.3     1  UNL1        0.0721
@<TRIPOS>BOND
     1    10    11   ar
     2    11    12   ar
     3    12    13   ar
     4    13    14   ar
     5    14     4    1
     6     4     5    1
     7     5     6    1
     8     6     7    1
     9     7     3    1
    10     3     2    1
    11     2     1    1
    12     1    20    1
    13    20    21    1
    14    21    22   ar
    15    22    23   ar
    16    23    24   ar
    17    24    27    1
    18    27    28    1
    19    28    29    1
    20    29    30    1
    21    30    31    1
    22    31    32    1
    23    32    33    1
    24    33    34    1
    25    34    35    1
    26    35    36    1
    27    36    37    1
    28    24    25   ar
    29    25    26   ar
    30     7     8    1
    31     8     9    1
    32    14    15   ar
    33    15    16   ar
    34    16    17   ar
    35    17    18   ar
    36    18    19   ar
    37    19    10   ar
    38    18    13   ar
    39     9     4    1
    40    26    21   ar
    41    37    31    1
@<TRIPOS>MOLECULE
*****
 37 41 0 0 0
SMALL
GASTEIGER

@<TRIPOS>ATOM
      1 C         139.3271  143.3189  165.4269 C.3     1  UNL1        0.0061
      2 C         138.9717  144.5489  164.6454 C.3     1  UNL1        0.0177
      3 C         138.1578  144.4312  163.3908 C.3     1  UNL1        0.0722
      4 N         140.2105  144.1188  159.3984 N.pl3   1  UNL1       -0.3035
      5 C         139.3148  143.0118  159.8698 C.3     1  UNL1        0.1082
      6 C         138.6306  143.1160  161.2007 C.3     1  UNL1        0.0938
      7 N         138.8421  144.3271  162.0600 N.3     1  UNL1       -0.2698
      8 C         139.7378  145.4340  161.5886 C.3     1  UNL1        0.0938
      9 C         140.4220  145.3299  160.2578 C.3     1  UNL1        0.1082
     10 C         144.9656  142.1197  157.7728 C.ar    1  UNL1        0.0207
     11 C         144.2814  142.2238  159.1035 C.ar    1  UNL1        0.0989
     12 N         142.9244  142.8555  159.2018 N.ar    1  UNL1       -0.2426
     13 C         142.2517  143.3830  157.9694 C.ar    1  UNL1        0.0945
     14 C         140.8947  144.0147  158.0676 C.ar    1  UNL1        0.0658
     15 C         140.2220  144.5423  156.8352 C.ar    1  UNL1        0.0160
     16 C         140.9062  144.4382  155.5043 C.ar    1  UNL1        0.0014
     17 C         142.2632  143.8065  155.4060 C.ar    1  UNL1        0.0016
     18 C         142.9359  143.2789  156.6386 C.ar    1  UNL1        0.0189
     19 C         144.2929  142.6473  156.5403 C.ar    1  UNL1        0.0031
     20 C         140.7471  143.0823  165.8482 C.3     1  UNL1        0.0264
     21 C         141.6978  142.3837  164.9219 C.ar    1  UNL1       -0.0220
     22 C         141.4083  142.3298  163.4511 C.ar    1  UNL1       -0.0012
     23 C         142.3591  141.6312  162.5247 C.ar    1  UNL1        0.0366
     24 C         143.5992  140.9865  163.0692 C.ar    1  UNL1        0.1385
     25 C         143.8886  141.0404  164.5400 C.ar    1  UNL1        0.0366
     26 C         142.9379  141.7390  165.4664 C.ar    1  UNL1       -0.0012
     27 O         144.5499  140.2879  162.1428 O.3     1  UNL1       -0.4754
     28 C         144.0812  139.1177  161.3299 C.3     1  UNL1        0.2068
     29 C         143.2847  138.0246  161.9788 C.3     1  UNL1        0.0646
     30 C         141.8027  137.9460  161.7609 C.3     1  UNL1        0.0759
     31 N         140.8630  138.5073  162.7865 N.3     1  UNL1       -0.2726
     32 C         139.6123  139.1365  162.2481 C.3     1  UNL1        0.0721
     33 C         138.4880  139.7790  163.0052 C.3     1  UNL1        0.0173
     34 C         138.3367  139.9509  164.4876 C.3     1  UNL1        0.0015
     35 C         139.2723  139.5228  165.5790 C.3     1  UNL1        0.0015
     36 C         140.5903  138.8170  165.4577 C.3     1  UNL1        0.0173
     37 C         141.2982  138.3651  164.2149 C.3     1  UNL1        0.0721
@<TRIPOS>BOND
     1    10    11   ar
     2    11    12   ar
     3    12    13   ar
     4    13    14   ar
     5    14     4    1
     6     4     5    1
     7     5     6    1
     8     6     7    1
     9     7     3    1
    10     3     2    1
    11     2     1    1
    12     1    20    1
    13    20    21    1
    14    21    22   ar
    15    22    23   ar
    16    23    24   ar
    17    24    27    1
    18    27    28    1
    19    28    29    1
    20    29    30    1
    21    30    31    1
    22    31    32    1
    23    32    33    1
    24    33    34    1
    25    34    35    1
    26    35    36    1
    27    36    37    1
    28    24    25   ar
    29    25    26   ar
    30     7     8    1
    31     8     9    1
    32    14    15   ar
    33    15    16   ar
    34    16    17   ar
    35    17    18   ar
    36    18    19   ar
    37    19    10   ar
    38    18    13   ar
    39     9     4    1
    40    26    21   ar
    41    37    31    1
