@<TRIPOS>MOLECULE
*****
 41 45 0 0 0
SMALL
GASTEIGER

@<TRIPOS>ATOM
      1 O         139.2586  144.0439  159.7232 O.3     1  UNL1       -0.4725
      2 C         140.4083  141.7771  159.1842 C.ar    1  UNL1        0.0877
      3 C         140.8379  140.7435  158.1858 C.ar    1  UNL1        0.0107
      4 C         140.5475  140.9429  156.7277 C.ar    1  UNL1        0.0370
      5 C         139.8275  142.1759  156.2681 C.ar    1  UNL1        0.1367
      6 O         139.5371  142.3753  154.8101 O.3     1  UNL1       -0.5054
      7 C         139.3978  143.2096  157.2666 C.ar    1  UNL1        0.0736
      8 C         139.6882  143.0102  158.7247 C.ar    1  UNL1        0.1460
      9 H         139.8055  141.7296  154.1864 H       1  UNL1        0.2922
     10 C         138.3628  140.6957  163.6141 C.3     1  UNL1        0.0930
     11 C         137.3852  140.7292  162.4769 C.3     1  UNL1        0.0428
     12 C         138.1412  141.0636  161.2253 C.3     1  UNL1        0.0955
     13 N         139.5861  141.2369  161.5889 N.am    1  UNL1       -0.2743
     14 C         140.6986  141.5778  160.6423 C.2     1  UNL1        0.2520
     15 O         142.1017  141.7193  161.1538 O.2     1  UNL1       -0.2698
     16 C         139.7231  141.0095  163.0652 C.3     1  UNL1        0.1132
     17 C         137.9092  138.7212  167.0265 C.3     1  UNL1        0.0946
     18 C         138.2347  139.0165  165.5923 C.2     1  UNL1        0.2230
     19 O         138.7574  137.9281  164.7024 O.2     1  UNL1       -0.2751
     20 N         138.0374  140.4003  165.0482 N.am    1  UNL1       -0.3042
     21 H         137.6943  141.1147  165.6323 H       1  UNL1        0.1494
     22 C         140.1224  145.2429  159.9802 C.3     1  UNL1        0.2358
     23 C         141.1195  145.2227  161.1007 C.3     1  UNL1        0.1700
     24 O         142.5253  144.7660  160.8454 O.3     1  UNL1       -0.3793
     25 H         142.6212  144.5210  159.9118 H       1  UNL1        0.2106
     26 C         140.7108  145.6592  162.4763 C.3     1  UNL1        0.1056
     27 N         140.8066  144.7011  163.6266 N.3     1  UNL1       -0.2703
     28 C         139.6434  144.5285  164.5577 C.3     1  UNL1        0.0758
     29 C         139.7392  143.5705  165.7079 C.3     1  UNL1        0.0577
     30 C         140.9982  142.7850  165.9269 C.3     1  UNL1        0.1399
     31 C         142.1614  142.9576  164.9957 C.3     1  UNL1        0.0577
     32 C         142.0656  143.9156  163.8455 C.3     1  UNL1        0.0758
     33 C         142.1859  141.9356  166.2703 C.3     1  UNL1        0.0695
     34 C         141.8448  141.1338  167.4914 C.ar    1  UNL1        0.0161
     35 C         142.6270  140.1272  168.2819 C.ar    1  UNL1        0.0102
     36 C         142.0107  139.4744  169.4836 C.ar    1  UNL1        0.0576
     37 CL        142.7929  138.4678  170.2741 Cl      1  UNL1       -0.0823
     38 C         140.6123  139.8283  169.8948 C.ar    1  UNL1        0.0145
     39 C         139.8300  140.8349  169.1043 C.ar    1  UNL1        0.0374
     40 C         140.4463  141.4877  167.9026 C.ar    1  UNL1        0.1343
     41 O         139.9231  142.5082  166.9357 O.3     1  UNL1       -0.4825
@<TRIPOS>BOND
     1    17    18    1
     2    18    19    2
     3    18    20   am
     4    10    20    1
     5    10    11    1
     6    11    12    1
     7    12    13    1
     8    13    14   am
     9    14    15    2
    10    14     2    1
    11     2     3   ar
    12     3     4   ar
    13     4     5   ar
    14     5     6    1
    15     5     7   ar
    16     7     8   ar
    17     8     1    1
    18     1    22    1
    19    22    23    1
    20    23    24    1
    21    23    26    1
    22    26    27    1
    23    27    28    1
    24    28    29    1
    25    29    30    1
    26    30    31    1
    27    31    32    1
    28    30    33    1
    29    33    34    1
    30    34    35   ar
    31    35    36   ar
    32    36    37    1
    33    36    38   ar
    34    38    39   ar
    35    39    40   ar
    36    40    41    1
    37    13    16    1
    38    16    10    1
    39     8     2   ar
    40    32    27    1
    41    40    34   ar
    42    41    30    1
    43    20    21    1
    44     6     9    1
    45    24    25    1
@<TRIPOS>MOLECULE
*****
 41 45 0 0 0
SMALL
GASTEIGER

@<TRIPOS>ATOM
      1 O         142.5560  139.6649  168.2291 O.3     1  UNL1       -0.4725
      2 C         140.7332  141.4615  168.6758 C.ar    1  UNL1        0.0877
      3 C         140.3118  142.7558  169.3061 C.ar    1  UNL1        0.0107
      4 C         141.2918  143.5477  170.1201 C.ar    1  UNL1        0.0370
      5 C         142.6931  143.0453  170.3038 C.ar    1  UNL1        0.1367
      6 O         143.6731  143.8372  171.1178 O.3     1  UNL1       -0.5054
      7 C         143.1146  141.7510  169.6735 C.ar    1  UNL1        0.0736
      8 C         142.1346  140.9591  168.8595 C.ar    1  UNL1        0.1460
      9 H         143.4098  144.6457  171.5115 H       1  UNL1        0.2922
     10 C         138.6953  140.9680  164.1393 C.3     1  UNL1        0.0930
     11 C         139.7007  142.0763  164.2447 C.3     1  UNL1        0.0428
     12 C         140.2193  142.0994  165.6520 C.3     1  UNL1        0.0955
     13 N         139.5345  141.0054  166.4164 N.am    1  UNL1       -0.2743
     14 C         139.7532  140.6697  167.8618 C.2     1  UNL1        0.2520
     15 O         138.9919  139.5419  168.4933 O.2     1  UNL1       -0.2698
     16 C         138.5927  140.3062  165.4815 C.3     1  UNL1        0.1132
     17 C         137.3503  138.8537  161.0619 C.3     1  UNL1        0.0946
     18 C         138.1182  139.2333  162.2933 C.2     1  UNL1        0.2230
     19 O         139.0766  138.2582  162.9100 O.2     1  UNL1       -0.2751
     20 N         137.9275  140.5883  162.9079 N.am    1  UNL1       -0.3042
     21 H         137.2984  141.2283  162.5032 H       1  UNL1        0.1494
     22 C         142.8250  139.6013  166.7549 C.3     1  UNL1        0.2358
     23 C         143.8846  138.6813  166.2248 C.3     1  UNL1        0.1700
     24 O         144.3175  137.4926  167.0308 O.3     1  UNL1       -0.3793
     25 H         143.8172  137.4657  167.8614 H       1  UNL1        0.2106
     26 C         144.5113  138.9500  164.8888 C.3     1  UNL1        0.1056
     27 N         143.7816  139.7749  163.8703 N.3     1  UNL1       -0.2703
     28 C         142.6463  139.1762  163.0941 C.3     1  UNL1        0.0758
     29 C         141.9167  140.0011  162.0758 C.3     1  UNL1        0.0577
     30 C         142.3224  141.4248  161.8336 C.3     1  UNL1        0.1399
     31 C         143.4577  142.0235  162.6098 C.3     1  UNL1        0.0577
     32 C         144.1873  141.1986  163.6281 C.3     1  UNL1        0.0758
     33 C         142.6133  142.8543  161.4844 C.3     1  UNL1        0.0695
     34 C         141.6444  143.2780  160.4205 C.ar    1  UNL1        0.0161
     35 C         141.4573  144.5762  159.6928 C.ar    1  UNL1        0.0102
     36 C         140.3805  144.7068  158.6566 C.ar    1  UNL1        0.0576
     37 CL        140.1935  146.0050  157.9288 Cl      1  UNL1       -0.0823
     38 C         139.4908  143.5392  158.3483 C.ar    1  UNL1        0.0145
     39 C         139.6779  142.2409  159.0761 C.ar    1  UNL1        0.0374
     40 C         140.7546  142.1104  160.1122 C.ar    1  UNL1        0.1343
     41 O         141.1736  140.9650  160.9855 O.3     1  UNL1       -0.4825
@<TRIPOS>BOND
     1    17    18    1
     2    18    19    2
     3    18    20   am
     4    10    20    1
     5    10    11    1
     6    11    12    1
     7    12    13    1
     8    13    14   am
     9    14    15    2
    10    14     2    1
    11     2     3   ar
    12     3     4   ar
    13     4     5   ar
    14     5     6    1
    15     5     7   ar
    16     7     8   ar
    17     8     1    1
    18     1    22    1
    19    22    23    1
    20    23    24    1
    21    23    26    1
    22    26    27    1
    23    27    28    1
    24    28    29    1
    25    29    30    1
    26    30    31    1
    27    31    32    1
    28    30    33    1
    29    33    34    1
    30    34    35   ar
    31    35    36   ar
    32    36    37    1
    33    36    38   ar
    34    38    39   ar
    35    39    40   ar
    36    40    41    1
    37    13    16    1
    38    16    10    1
    39     8     2   ar
    40    32    27    1
    41    40    34   ar
    42    41    30    1
    43    20    21    1
    44     6     9    1
    45    24    25    1
@<TRIPOS>MOLECULE
*****
 41 45 0 0 0
SMALL
GASTEIGER

@<TRIPOS>ATOM
      1 O         140.9568  138.4083  160.6655 O.3     1  UNL1       -0.4725
      2 C         143.1454  139.5280  161.5060 C.ar    1  UNL1        0.0877
      3 C         144.1264  139.7972  162.6083 C.ar    1  UNL1        0.0107
      4 C         143.8998  139.2162  163.9725 C.ar    1  UNL1        0.0370
      5 C         142.6923  138.3658  164.2344 C.ar    1  UNL1        0.1367
      6 O         142.4657  137.7847  165.5985 O.3     1  UNL1       -0.5054
      7 C         141.7112  138.0965  163.1320 C.ar    1  UNL1        0.0736
      8 C         141.9378  138.6776  161.7678 C.ar    1  UNL1        0.1460
      9 H         143.0785  137.9529  166.2871 H       1  UNL1        0.2922
     10 C         142.7372  143.6753  158.7475 C.3     1  UNL1        0.0930
     11 C         142.2791  143.8333  160.1671 C.3     1  UNL1        0.0428
     12 C         142.4612  142.5166  160.8622 C.3     1  UNL1        0.0955
     13 N         143.0318  141.5448  159.8722 N.am    1  UNL1       -0.2743
     14 C         143.3720  140.1091  160.1418 C.2     1  UNL1        0.2520
     15 O         143.9389  139.2543  159.0472 O.2     1  UNL1       -0.2698
     16 C         143.2024  142.2610  158.5653 C.3     1  UNL1        0.1132
     17 C         141.6677  145.8118  155.5787 C.3     1  UNL1        0.0946
     18 C         141.6737  144.7430  156.6312 C.2     1  UNL1        0.2230
     19 O         140.6223  143.6734  156.6199 O.2     1  UNL1       -0.2751
     20 N         142.7312  144.7440  157.6950 N.am    1  UNL1       -0.3042
     21 H         143.4213  145.4461  157.7024 H       1  UNL1        0.1494
     22 C         139.5153  138.1511  160.9907 C.3     1  UNL1        0.2358
     23 C         138.4970  139.2347  160.7935 C.3     1  UNL1        0.1700
     24 O         138.0705  139.6199  159.4079 O.3     1  UNL1       -0.3793
     25 H         138.5453  139.0757  158.7604 H       1  UNL1        0.2106
     26 C         137.9052  139.9331  161.9817 C.3     1  UNL1        0.1056
     27 N         138.7344  140.1531  163.2122 N.3     1  UNL1       -0.2703
     28 C         138.5548  139.2637  164.4065 C.3     1  UNL1        0.0758
     29 C         139.3840  139.4837  165.6369 C.3     1  UNL1        0.0577
     30 C         140.3928  140.5932  165.6730 C.3     1  UNL1        0.1399
     31 C         140.5724  141.4827  164.4786 C.3     1  UNL1        0.0577
     32 C         139.7432  141.2627  163.2482 C.3     1  UNL1        0.0758
     33 C         141.4353  141.6563  165.8552 C.3     1  UNL1        0.0695
     34 C         142.0120  141.5089  167.2321 C.ar    1  UNL1        0.0161
     35 C         143.0731  142.2765  167.9633 C.ar    1  UNL1        0.0102
     36 C         143.4482  141.8900  169.3633 C.ar    1  UNL1        0.0576
     37 CL        144.5093  142.6576  170.0945 Cl      1  UNL1       -0.0823
     38 C         142.7621  140.7359  170.0321 C.ar    1  UNL1        0.0145
     39 C         141.7009  139.9682  169.3009 C.ar    1  UNL1        0.0374
     40 C         141.3258  140.3547  167.9009 C.ar    1  UNL1        0.1343
     41 O         140.3252  139.7888  166.9373 O.3     1  UNL1       -0.4825
@<TRIPOS>BOND
     1    17    18    1
     2    18    19    2
     3    18    20   am
     4    10    20    1
     5    10    11    1
     6    11    12    1
     7    12    13    1
     8    13    14   am
     9    14    15    2
    10    14     2    1
    11     2     3   ar
    12     3     4   ar
    13     4     5   ar
    14     5     6    1
    15     5     7   ar
    16     7     8   ar
    17     8     1    1
    18     1    22    1
    19    22    23    1
    20    23    24    1
    21    23    26    1
    22    26    27    1
    23    27    28    1
    24    28    29    1
    25    29    30    1
    26    30    31    1
    27    31    32    1
    28    30    33    1
    29    33    34    1
    30    34    35   ar
    31    35    36   ar
    32    36    37    1
    33    36    38   ar
    34    38    39   ar
    35    39    40   ar
    36    40    41    1
    37    13    16    1
    38    16    10    1
    39     8     2   ar
    40    32    27    1
    41    40    34   ar
    42    41    30    1
    43    20    21    1
    44     6     9    1
    45    24    25    1
@<TRIPOS>MOLECULE
*****
 41 45 0 0 0
SMALL
GASTEIGER

@<TRIPOS>ATOM
      1 O         138.3682  141.3480  159.5287 O.3     1  UNL1       -0.4725
      2 C         139.5403  143.2146  160.9043 C.ar    1  UNL1        0.0877
      3 C         139.7400  143.9417  162.2009 C.ar    1  UNL1        0.0107
      4 C         138.9674  143.5294  163.4187 C.ar    1  UNL1        0.0370
      5 C         137.9950  142.3900  163.3399 C.ar    1  UNL1        0.1367
      6 O         137.2224  141.9777  164.5577 O.3     1  UNL1       -0.5054
      7 C         137.7953  141.6628  162.0432 C.ar    1  UNL1        0.0736
      8 C         138.5679  142.0751  160.8254 C.ar    1  UNL1        0.1460
      9 H         137.3472  142.4319  165.3677 H       1  UNL1        0.2922
     10 C         143.9735  142.9028  158.6182 C.3     1  UNL1        0.0930
     11 C         143.9061  142.1798  159.9308 C.3     1  UNL1        0.0428
     12 C         142.5266  142.3631  160.4907 C.3     1  UNL1        0.0955
     13 N         141.7414  143.1993  159.5242 N.am    1  UNL1       -0.2743
     14 C         140.3129  143.6269  159.6864 C.2     1  UNL1        0.2520
     15 O         139.6569  144.4669  158.6309 O.2     1  UNL1       -0.2698
     16 C         142.6356  143.5328  158.3670 C.3     1  UNL1        0.1132
     17 C         146.8350  141.8378  156.0831 C.3     1  UNL1        0.0946
     18 C         145.6396  141.7587  156.9858 C.2     1  UNL1        0.2230
     19 O         144.9152  140.4568  157.1588 O.2     1  UNL1       -0.2751
     20 N         145.1688  142.9817  157.7155 N.am    1  UNL1       -0.3042
     21 H         145.6443  143.8363  157.6019 H       1  UNL1        0.1494
     22 C         138.2458  139.8531  159.5183 C.3     1  UNL1        0.2358
     23 C         139.4556  138.9998  159.7604 C.3     1  UNL1        0.1700
     24 O         140.6040  139.0359  158.7960 O.3     1  UNL1       -0.3793
     25 H         140.4041  139.6571  158.0783 H       1  UNL1        0.2106
     26 C         139.5169  138.1104  160.9667 C.3     1  UNL1        0.1056
     27 N         139.7149  138.7067  162.3288 N.3     1  UNL1       -0.2703
     28 C         138.8535  138.2634  163.4740 C.3     1  UNL1        0.0758
     29 C         139.0514  138.8596  164.8360 C.3     1  UNL1        0.0577
     30 C         140.1108  139.8992  165.0529 C.3     1  UNL1        0.1399
     31 C         140.9722  140.3425  163.9078 C.3     1  UNL1        0.0577
     32 C         140.7742  139.7462  162.5457 C.3     1  UNL1        0.0758
     33 C         141.1243  140.9423  165.4200 C.3     1  UNL1        0.0695
     34 C         140.9699  141.2448  166.8811 C.ar    1  UNL1        0.0161
     35 C         141.6958  142.1892  167.7927 C.ar    1  UNL1        0.0102
     36 C         141.3128  142.2775  169.2403 C.ar    1  UNL1        0.0576
     37 CL        142.0387  143.2220  170.1519 Cl      1  UNL1       -0.0823
     38 C         140.2039  141.4214  169.7762 C.ar    1  UNL1        0.0145
     39 C         139.4779  140.4770  168.8646 C.ar    1  UNL1        0.0374
     40 C         139.8609  140.3887  167.4170 C.ar    1  UNL1        0.1343
     41 O         139.3300  139.5570  166.2872 O.3     1  UNL1       -0.4825
@<TRIPOS>BOND
     1    17    18    1
     2    18    19    2
     3    18    20   am
     4    10    20    1
     5    10    11    1
     6    11    12    1
     7    12    13    1
     8    13    14   am
     9    14    15    2
    10    14     2    1
    11     2     3   ar
    12     3     4   ar
    13     4     5   ar
    14     5     6    1
    15     5     7   ar
    16     7     8   ar
    17     8     1    1
    18     1    22    1
    19    22    23    1
    20    23    24    1
    21    23    26    1
    22    26    27    1
    23    27    28    1
    24    28    29    1
    25    29    30    1
    26    30    31    1
    27    31    32    1
    28    30    33    1
    29    33    34    1
    30    34    35   ar
    31    35    36   ar
    32    36    37    1
    33    36    38   ar
    34    38    39   ar
    35    39    40   ar
    36    40    41    1
    37    13    16    1
    38    16    10    1
    39     8     2   ar
    40    32    27    1
    41    40    34   ar
    42    41    30    1
    43    20    21    1
    44     6     9    1
    45    24    25    1
@<TRIPOS>MOLECULE
*****
 41 45 0 0 0
SMALL
GASTEIGER

@<TRIPOS>ATOM
      1 O         140.3936  140.9015  160.2250 O.3     1  UNL1       -0.4725
      2 C         141.3873  142.5955  161.9259 C.ar    1  UNL1        0.0877
      3 C         142.2806  142.8908  163.0940 C.ar    1  UNL1        0.0107
      4 C         143.0737  141.7875  163.7295 C.ar    1  UNL1        0.0370
      5 C         142.9733  140.3889  163.1969 C.ar    1  UNL1        0.1367
      6 O         143.7663  139.2856  163.8324 O.3     1  UNL1       -0.5054
      7 C         142.0800  140.0935  162.0287 C.ar    1  UNL1        0.0736
      8 C         141.2869  141.1968  161.3931 C.ar    1  UNL1        0.1460
      9 H         144.3244  139.4701  164.5621 H       1  UNL1        0.2922
     10 C         141.1221  145.6371  157.9693 C.3     1  UNL1        0.0930
     11 C         142.2908  144.6970  157.9451 C.3     1  UNL1        0.0428
     12 C         142.2353  143.8565  159.1863 C.3     1  UNL1        0.0955
     13 N         141.0323  144.2771  159.9775 N.am    1  UNL1       -0.2743
     14 C         140.5943  143.6988  161.2903 C.2     1  UNL1        0.2520
     15 O         139.3631  144.2237  161.9677 O.2     1  UNL1       -0.2698
     16 C         140.3444  145.3775  159.2253 C.3     1  UNL1        0.1132
     17 C         139.3556  147.4123  154.8907 C.3     1  UNL1        0.0946
     18 C         139.6880  146.3918  155.9386 C.2     1  UNL1        0.2230
     19 O         138.9189  145.1057  156.0038 O.2     1  UNL1       -0.2751
     20 N         140.7897  146.6575  156.9213 N.am    1  UNL1       -0.3042
     21 H         141.2945  147.5016  156.8785 H       1  UNL1        0.1494
     22 C         139.6804  139.5846  160.1403 C.3     1  UNL1        0.2358
     23 C         138.2143  139.5045  160.4476 C.3     1  UNL1        0.1700
     24 O         137.2073  139.8853  159.4032 O.3     1  UNL1       -0.3793
     25 H         137.6678  140.1578  158.5941 H       1  UNL1        0.2106
     26 C         137.7554  139.0437  161.7993 C.3     1  UNL1        0.1056
     27 N         138.5347  139.4201  163.0245 N.3     1  UNL1       -0.2703
     28 C         139.3643  138.3897  163.7316 C.3     1  UNL1        0.0758
     29 C         140.1435  138.7661  164.9568 C.3     1  UNL1        0.0577
     30 C         140.0931  140.1728  165.4749 C.3     1  UNL1        0.1399
     31 C         139.2635  141.2032  164.7678 C.3     1  UNL1        0.0577
     32 C         138.4843  140.8268  163.5426 C.3     1  UNL1        0.0758
     33 C         140.1401  141.5324  166.1068 C.3     1  UNL1        0.0695
     34 C         141.0382  141.4556  167.3058 C.ar    1  UNL1        0.0161
     35 C         141.4590  142.4851  168.3123 C.ar    1  UNL1        0.0102
     36 C         142.3879  142.1075  169.4279 C.ar    1  UNL1        0.0576
     37 CL        142.8087  143.1369  170.4344 Cl      1  UNL1       -0.0823
     38 C         142.8960  140.7004  169.5370 C.ar    1  UNL1        0.0145
     39 C         142.4752  139.6708  168.5305 C.ar    1  UNL1        0.0374
     40 C         141.5463  140.0484  167.4149 C.ar    1  UNL1        0.1343
     41 O         140.9622  139.2557  166.2834 O.3     1  UNL1       -0.4825
@<TRIPOS>BOND
     1    17    18    1
     2    18    19    2
     3    18    20   am
     4    10    20    1
     5    10    11    1
     6    11    12    1
     7    12    13    1
     8    13    14   am
     9    14    15    2
    10    14     2    1
    11     2     3   ar
    12     3     4   ar
    13     4     5   ar
    14     5     6    1
    15     5     7   ar
    16     7     8   ar
    17     8     1    1
    18     1    22    1
    19    22    23    1
    20    23    24    1
    21    23    26    1
    22    26    27    1
    23    27    28    1
    24    28    29    1
    25    29    30    1
    26    30    31    1
    27    31    32    1
    28    30    33    1
    29    33    34    1
    30    34    35   ar
    31    35    36   ar
    32    36    37    1
    33    36    38   ar
    34    38    39   ar
    35    39    40   ar
    36    40    41    1
    37    13    16    1
    38    16    10    1
    39     8     2   ar
    40    32    27    1
    41    40    34   ar
    42    41    30    1
    43    20    21    1
    44     6     9    1
    45    24    25    1
@<TRIPOS>MOLECULE
*****
 41 45 0 0 0
SMALL
GASTEIGER

@<TRIPOS>ATOM
      1 O         141.0400  140.1429  159.0331 O.3     1  UNL1       -0.4725
      2 C         140.0023  142.2964  160.0507 C.ar    1  UNL1        0.0877
      3 C         139.9934  143.7890  160.1996 C.ar    1  UNL1        0.0107
      4 C         141.0133  144.6206  159.4797 C.ar    1  UNL1        0.0370
      5 C         142.0421  143.9597  158.6110 C.ar    1  UNL1        0.1367
      6 O         143.0620  144.7913  157.8911 O.3     1  UNL1       -0.5054
      7 C         142.0510  142.4671  158.4621 C.ar    1  UNL1        0.0736
      8 C         141.0311  141.6355  159.1820 C.ar    1  UNL1        0.1460
      9 H         143.0564  145.7237  157.9841 H       1  UNL1        0.2922
     10 C         138.5397  140.6674  164.5433 C.3     1  UNL1        0.0930
     11 C         139.7549  141.5463  164.5734 C.3     1  UNL1        0.0428
     12 C         140.0686  141.9519  163.1638 C.3     1  UNL1        0.0955
     13 N         139.0473  141.3238  162.2625 N.am    1  UNL1       -0.2743
     14 C         138.9824  141.4648  160.7706 C.2     1  UNL1        0.2520
     15 O         137.8975  140.7742  159.9985 O.2     1  UNL1       -0.2698
     16 C         138.1024  140.5299  163.1151 C.3     1  UNL1        0.1132
     17 C         137.4081  137.9445  167.1995 C.3     1  UNL1        0.0946
     18 C         138.0698  138.5751  166.0102 C.2     1  UNL1        0.2230
     19 O         138.9232  137.7443  165.0985 O.2     1  UNL1       -0.2751
     20 N         137.8780  140.0367  165.7326 N.am    1  UNL1       -0.3042
     21 H         137.3178  140.5820  166.3310 H       1  UNL1        0.1494
     22 C         141.6022  139.2835  160.1264 C.3     1  UNL1        0.2358
     23 C         142.8788  138.5277  159.9048 C.3     1  UNL1        0.1700
     24 O         143.2988  138.1565  158.5135 O.3     1  UNL1       -0.3793
     25 H         142.6385  138.4779  157.8798 H       1  UNL1        0.2106
     26 C         143.7354  138.1431  161.0746 C.3     1  UNL1        0.1056
     27 N         143.4403  138.7004  162.4357 N.3     1  UNL1       -0.2703
     28 C         142.4909  137.9841  163.3497 C.3     1  UNL1        0.0758
     29 C         142.1959  138.5414  164.7107 C.3     1  UNL1        0.0577
     30 C         142.8503  139.8149  165.1576 C.3     1  UNL1        0.1399
     31 C         143.7997  140.5312  164.2436 C.3     1  UNL1        0.0577
     32 C         144.0947  139.9739  162.8826 C.3     1  UNL1        0.0758
     33 C         143.4260  141.0719  165.7395 C.3     1  UNL1        0.0695
     34 C         142.8592  141.2469  167.1173 C.ar    1  UNL1        0.0161
     35 C         143.0667  142.3039  168.1612 C.ar    1  UNL1        0.0102
     36 C         142.3482  142.2121  169.4747 C.ar    1  UNL1        0.0576
     37 CL        142.5556  143.2691  170.5185 Cl      1  UNL1       -0.0823
     38 C         141.4222  141.0633  169.7443 C.ar    1  UNL1        0.0145
     39 C         141.2147  140.0062  168.7005 C.ar    1  UNL1        0.0374
     40 C         141.9332  140.0980  167.3869 C.ar    1  UNL1        0.1343
     41 O         141.9277  139.2130  166.1759 O.3     1  UNL1       -0.4825
@<TRIPOS>BOND
     1    17    18    1
     2    18    19    2
     3    18    20   am
     4    10    20    1
     5    10    11    1
     6    11    12    1
     7    12    13    1
     8    13    14   am
     9    14    15    2
    10    14     2    1
    11     2     3   ar
    12     3     4   ar
    13     4     5   ar
    14     5     6    1
    15     5     7   ar
    16     7     8   ar
    17     8     1    1
    18     1    22    1
    19    22    23    1
    20    23    24    1
    21    23    26    1
    22    26    27    1
    23    27    28    1
    24    28    29    1
    25    29    30    1
    26    30    31    1
    27    31    32    1
    28    30    33    1
    29    33    34    1
    30    34    35   ar
    31    35    36   ar
    32    36    37    1
    33    36    38   ar
    34    38    39   ar
    35    39    40   ar
    36    40    41    1
    37    13    16    1
    38    16    10    1
    39     8     2   ar
    40    32    27    1
    41    40    34   ar
    42    41    30    1
    43    20    21    1
    44     6     9    1
    45    24    25    1
@<TRIPOS>MOLECULE
*****
 41 45 0 0 0
SMALL
GASTEIGER

@<TRIPOS>ATOM
      1 O         142.1298  140.9020  160.1464 O.3     1  UNL1       -0.4725
      2 C         142.4842  138.4028  159.5312 C.ar    1  UNL1        0.0877
      3 C         142.6731  137.3340  158.4959 C.ar    1  UNL1        0.0107
      4 C         142.6966  137.6956  157.0403 C.ar    1  UNL1        0.0370
      5 C         142.5311  139.1260  156.6201 C.ar    1  UNL1        0.1367
      6 O         142.5546  139.4876  155.1645 O.3     1  UNL1       -0.5054
      7 C         142.3422  140.1948  157.6555 C.ar    1  UNL1        0.0736
      8 C         142.3187  139.8332  159.1110 C.ar    1  UNL1        0.1460
      9 H         142.6726  138.8199  154.5178 H       1  UNL1        0.2922
     10 C         139.5191  137.7752  163.5050 C.3     1  UNL1        0.0930
     11 C         138.7948  138.1781  162.2546 C.3     1  UNL1        0.0428
     12 C         139.8087  138.3267  161.1592 C.3     1  UNL1        0.0955
     13 N         141.1595  138.0157  161.7324 N.am    1  UNL1       -0.2743
     14 C         142.4607  138.0412  160.9868 C.2     1  UNL1        0.2520
     15 O         143.7387  137.7050  161.6968 O.2     1  UNL1       -0.2698
     16 C         140.9805  137.6749  163.1822 C.3     1  UNL1        0.1132
     17 C         137.7103  138.4014  166.9814 C.3     1  UNL1        0.0946
     18 C         138.3373  138.6588  165.6433 C.2     1  UNL1        0.2230
     19 O         138.4098  140.0572  165.1055 O.2     1  UNL1       -0.2751
     20 N         138.8920  137.5178  164.8430 N.am    1  UNL1       -0.3042
     21 H         138.8444  136.6000  165.1960 H       1  UNL1        0.1494
     22 C         142.6564  142.2849  159.9014 C.3     1  UNL1        0.2358
     23 C         144.1222  142.4983  159.6647 C.3     1  UNL1        0.1700
     24 O         144.6481  142.6042  158.2639 O.3     1  UNL1       -0.3793
     25 H         143.9147  142.5141  157.6355 H       1  UNL1        0.2106
     26 C         145.0621  142.6057  160.8288 C.3     1  UNL1        0.1056
     27 N         144.5858  142.2694  162.2109 N.3     1  UNL1       -0.2703
     28 C         144.4615  140.8355  162.6331 C.3     1  UNL1        0.0758
     29 C         143.9852  140.4992  164.0151 C.3     1  UNL1        0.0577
     30 C         143.6332  141.5969  164.9749 C.3     1  UNL1        0.1399
     31 C         143.7575  143.0309  164.5527 C.3     1  UNL1        0.0577
     32 C         144.2338  143.3671  163.1706 C.3     1  UNL1        0.0758
     33 C         143.2468  142.5818  166.0383 C.3     1  UNL1        0.0695
     34 C         142.8344  141.8103  167.2569 C.ar    1  UNL1        0.0161
     35 C         142.3562  142.2499  168.6089 C.ar    1  UNL1        0.0102
     36 C         142.0094  141.2279  169.6507 C.ar    1  UNL1        0.0576
     37 CL        141.5312  141.6674  171.0027 Cl      1  UNL1       -0.0823
     38 C         142.1409  139.7662  169.3404 C.ar    1  UNL1        0.0145
     39 C         142.6191  139.3266  167.9883 C.ar    1  UNL1        0.0374
     40 C         142.9659  140.3486  166.9466 C.ar    1  UNL1        0.1343
     41 O         143.4595  140.2167  165.5363 O.3     1  UNL1       -0.4825
@<TRIPOS>BOND
     1    17    18    1
     2    18    19    2
     3    18    20   am
     4    10    20    1
     5    10    11    1
     6    11    12    1
     7    12    13    1
     8    13    14   am
     9    14    15    2
    10    14     2    1
    11     2     3   ar
    12     3     4   ar
    13     4     5   ar
    14     5     6    1
    15     5     7   ar
    16     7     8   ar
    17     8     1    1
    18     1    22    1
    19    22    23    1
    20    23    24    1
    21    23    26    1
    22    26    27    1
    23    27    28    1
    24    28    29    1
    25    29    30    1
    26    30    31    1
    27    31    32    1
    28    30    33    1
    29    33    34    1
    30    34    35   ar
    31    35    36   ar
    32    36    37    1
    33    36    38   ar
    34    38    39   ar
    35    39    40   ar
    36    40    41    1
    37    13    16    1
    38    16    10    1
    39     8     2   ar
    40    32    27    1
    41    40    34   ar
    42    41    30    1
    43    20    21    1
    44     6     9    1
    45    24    25    1
@<TRIPOS>MOLECULE
*****
 41 45 0 0 0
SMALL
GASTEIGER

@<TRIPOS>ATOM
      1 O         139.4032  142.8999  159.5157 O.3     1  UNL1       -0.4725
      2 C         140.2428  140.9775  161.0486 C.ar    1  UNL1        0.0877
      3 C         140.1289  140.1821  162.3152 C.ar    1  UNL1        0.0107
      4 C         139.0615  140.5136  163.3156 C.ar    1  UNL1        0.0370
      5 C         138.1080  141.6405  163.0493 C.ar    1  UNL1        0.1367
      6 O         137.0405  141.9719  164.0497 O.3     1  UNL1       -0.5054
      7 C         138.2219  142.4359  161.7827 C.ar    1  UNL1        0.0736
      8 C         139.2893  142.1045  160.7823 C.ar    1  UNL1        0.1460
      9 H         136.9694  141.4751  164.8409 H       1  UNL1        0.2922
     10 C         141.3256  138.1767  157.0537 C.3     1  UNL1        0.0930
     11 C         139.9388  137.9749  157.5887 C.3     1  UNL1        0.0428
     12 C         139.7643  138.8754  158.7756 C.3     1  UNL1        0.0955
     13 N         141.0432  139.6337  158.9741 N.am    1  UNL1       -0.2743
     14 C         141.3102  140.6460  160.0483 C.2     1  UNL1        0.2520
     15 O         142.6448  141.3270  160.1220 O.2     1  UNL1       -0.2698
     16 C         142.0081  139.2018  157.9100 C.3     1  UNL1        0.1132
     17 C         143.3600  135.5469  154.8870 C.3     1  UNL1        0.0946
     18 C         142.7610  136.2473  156.0705 C.2     1  UNL1        0.2230
     19 O         142.9984  135.7188  157.4540 O.2     1  UNL1       -0.2751
     20 N         141.9246  137.4762  155.8703 N.am    1  UNL1       -0.3042
     21 H         141.7688  137.8231  154.9622 H       1  UNL1        0.1494
     22 C         139.9586  144.2927  159.5523 C.3     1  UNL1        0.2358
     23 C         141.1823  144.5911  160.3669 C.3     1  UNL1        0.1700
     24 O         142.5417  144.2560  159.8287 O.3     1  UNL1       -0.3793
     25 H         142.4518  143.8557  158.9497 H       1  UNL1        0.2106
     26 C         141.0466  145.2246  161.7198 C.3     1  UNL1        0.1056
     27 N         141.1002  144.3748  162.9547 N.3     1  UNL1       -0.2703
     28 C         142.1804  143.3459  163.1108 C.3     1  UNL1        0.0758
     29 C         142.2339  142.4961  164.3457 C.3     1  UNL1        0.0577
     30 C         141.2072  142.6752  165.4245 C.3     1  UNL1        0.1399
     31 C         140.1270  143.7041  165.2684 C.3     1  UNL1        0.0577
     32 C         140.0735  144.5539  164.0335 C.3     1  UNL1        0.0758
     33 C         140.2545  142.7400  166.5813 C.3     1  UNL1        0.0695
     34 C         140.6814  141.7162  167.5912 C.ar    1  UNL1        0.0161
     35 C         140.1195  141.3290  168.9270 C.ar    1  UNL1        0.0102
     36 C         140.7741  140.2443  169.7301 C.ar    1  UNL1        0.0576
     37 CL        140.2123  139.8571  171.0659 Cl      1  UNL1       -0.0823
     38 C         141.9906  139.5468  169.1974 C.ar    1  UNL1        0.0145
     39 C         142.5525  139.9340  167.8615 C.ar    1  UNL1        0.0374
     40 C         141.8979  141.0187  167.0584 C.ar    1  UNL1        0.1343
     41 O         142.2228  141.6114  165.7194 O.3     1  UNL1       -0.4825
@<TRIPOS>BOND
     1    17    18    1
     2    18    19    2
     3    18    20   am
     4    10    20    1
     5    10    11    1
     6    11    12    1
     7    12    13    1
     8    13    14   am
     9    14    15    2
    10    14     2    1
    11     2     3   ar
    12     3     4   ar
    13     4     5   ar
    14     5     6    1
    15     5     7   ar
    16     7     8   ar
    17     8     1    1
    18     1    22    1
    19    22    23    1
    20    23    24    1
    21    23    26    1
    22    26    27    1
    23    27    28    1
    24    28    29    1
    25    29    30    1
    26    30    31    1
    27    31    32    1
    28    30    33    1
    29    33    34    1
    30    34    35   ar
    31    35    36   ar
    32    36    37    1
    33    36    38   ar
    34    38    39   ar
    35    39    40   ar
    36    40    41    1
    37    13    16    1
    38    16    10    1
    39     8     2   ar
    40    32    27    1
    41    40    34   ar
    42    41    30    1
    43    20    21    1
    44     6     9    1
    45    24    25    1
@<TRIPOS>MOLECULE
*****
 41 45 0 0 0
SMALL
GASTEIGER

@<TRIPOS>ATOM
      1 O         138.5771  143.1611  159.5268 O.3     1  UNL1       -0.4725
      2 C         138.1866  140.8581  160.6642 C.ar    1  UNL1        0.0877
      3 C         137.8852  140.0498  161.8913 C.ar    1  UNL1        0.0107
      4 C         137.6729  140.7361  163.2080 C.ar    1  UNL1        0.0370
      5 C         137.7619  142.2307  163.2978 C.ar    1  UNL1        0.1367
      6 O         137.5496  142.9170  164.6145 O.3     1  UNL1       -0.5054
      7 C         138.0634  143.0391  162.0707 C.ar    1  UNL1        0.0736
      8 C         138.2757  142.3528  160.7539 C.ar    1  UNL1        0.1460
      9 H         137.3613  142.4121  165.3810 H       1  UNL1        0.2922
     10 C         141.3185  137.9610  158.0614 C.3     1  UNL1        0.0930
     11 C         141.7910  138.2880  159.4471 C.3     1  UNL1        0.0428
     12 C         140.7548  139.1559  160.0974 C.3     1  UNL1        0.0955
     13 N         139.6419  139.3654  159.1138 N.am    1  UNL1       -0.2743
     14 C         138.3989  140.1718  159.3474 C.2     1  UNL1        0.2520
     15 O         137.3682  140.2919  158.2643 O.2     1  UNL1       -0.2698
     16 C         139.9903  138.6270  157.8555 C.3     1  UNL1        0.1132
     17 C         144.0409  136.7756  155.4284 C.3     1  UNL1        0.0946
     18 C         143.3130  137.6202  156.4318 C.2     1  UNL1        0.2230
     19 O         143.8516  138.9683  156.8091 O.2     1  UNL1       -0.2751
     20 N         142.0464  137.1165  157.0580 N.am    1  UNL1       -0.3042
     21 H         141.6929  136.2317  156.8104 H       1  UNL1        0.1494
     22 C         139.7952  144.0354  159.4852 C.3     1  UNL1        0.2358
     23 C         141.1607  143.4252  159.6004 C.3     1  UNL1        0.1700
     24 O         141.5252  142.2383  158.7588 O.3     1  UNL1       -0.3793
     25 H         140.7708  141.9942  158.2000 H       1  UNL1        0.2106
     26 C         142.1616  144.0019  160.5573 C.3     1  UNL1        0.1056
     27 N         142.2657  143.4586  161.9516 N.3     1  UNL1       -0.2703
     28 C         142.9141  144.2766  163.0288 C.3     1  UNL1        0.0758
     29 C         143.0182  143.7332  164.4230 C.3     1  UNL1        0.0577
     30 C         142.4739  142.3719  164.7400 C.3     1  UNL1        0.1399
     31 C         141.8255  141.5539  163.6629 C.3     1  UNL1        0.0577
     32 C         141.7214  142.0972  162.2686 C.3     1  UNL1        0.0758
     33 C         141.9780  141.0346  165.2045 C.3     1  UNL1        0.0695
     34 C         142.2898  140.9067  166.6662 C.ar    1  UNL1        0.0161
     35 C         142.0356  139.8071  167.6543 C.ar    1  UNL1        0.0102
     36 C         142.4701  139.9657  169.0812 C.ar    1  UNL1        0.0576
     37 CL        142.2160  138.8661  170.0692 Cl      1  UNL1       -0.0823
     38 C         143.1587  141.2239  169.5201 C.ar    1  UNL1        0.0145
     39 C         143.4129  142.3236  168.5320 C.ar    1  UNL1        0.0374
     40 C         142.9785  142.1650  167.1051 C.ar    1  UNL1        0.1343
     41 O         143.0922  143.0705  165.9147 O.3     1  UNL1       -0.4825
@<TRIPOS>BOND
     1    17    18    1
     2    18    19    2
     3    18    20   am
     4    10    20    1
     5    10    11    1
     6    11    12    1
     7    12    13    1
     8    13    14   am
     9    14    15    2
    10    14     2    1
    11     2     3   ar
    12     3     4   ar
    13     4     5   ar
    14     5     6    1
    15     5     7   ar
    16     7     8   ar
    17     8     1    1
    18     1    22    1
    19    22    23    1
    20    23    24    1
    21    23    26    1
    22    26    27    1
    23    27    28    1
    24    28    29    1
    25    29    30    1
    26    30    31    1
    27    31    32    1
    28    30    33    1
    29    33    34    1
    30    34    35   ar
    31    35    36   ar
    32    36    37    1
    33    36    38   ar
    34    38    39   ar
    35    39    40   ar
    36    40    41    1
    37    13    16    1
    38    16    10    1
    39     8     2   ar
    40    32    27    1
    41    40    34   ar
    42    41    30    1
    43    20    21    1
    44     6     9    1
    45    24    25    1
