@<TRIPOS>MOLECULE
*****
 45 50 0 0 0
SMALL
GASTEIGER

@<TRIPOS>ATOM
      1 C         137.8518  142.9728  162.9435 C.3     1  UNL1        0.0932
      2 C         137.6502  141.8367  163.9019 C.3     1  UNL1        0.0286
      3 C         137.6663  140.4224  163.4025 C.3     1  UNL1        0.0193
      4 C         137.8840  140.1441  161.9447 C.3     1  UNL1        0.0700
      5 C         138.0856  141.2803  160.9863 C.3     1  UNL1        0.0193
      6 C         138.0695  142.6946  161.4857 C.3     1  UNL1        0.0286
      7 C         137.8833  140.9357  162.1714 C.3     1  UNL1        0.1562
      8 O         137.8688  142.2146  162.6229 O.3     1  UNL1       -0.3572
      9 N         137.9002  138.7298  161.4453 N.3     1  UNL1       -0.2926
     10 H         137.3264  138.7087  160.6023 H       1  UNL1        0.1236
     11 C         139.2027  138.0714  161.0992 C.3     1  UNL1        0.1152
     12 C         140.3925  138.2452  161.9959 C.ar    1  UNL1        0.0765
     13 C         140.5305  137.4043  163.2304 C.ar    1  UNL1        0.0193
     14 C         141.7203  137.5781  164.1272 C.ar    1  UNL1        0.0411
     15 C         142.7722  138.5928  163.7894 C.ar    1  UNL1        0.1708
     16 C         142.6343  139.4336  162.5550 C.ar    1  UNL1        0.1682
     17 N         141.4444  139.2598  161.6582 N.ar    1  UNL1       -0.2304
     18 N         143.6861  140.4482  162.2172 N.am    1  UNL1       -0.2639
     19 C         144.8759  140.6220  163.1139 C.2     1  UNL1        0.2718
     20 O         145.9278  141.6366  162.7762 O.2     1  UNL1       -0.2707
     21 C         145.0139  139.7811  164.3485 C.3     1  UNL1        0.2898
     22 O         143.9620  138.7665  164.6862 O.3     1  UNL1       -0.4628
     23 H         143.5956  141.0001  161.4070 H       1  UNL1        0.1565
     24 C         137.8357  144.3871  163.4428 C.3     1  UNL1        0.0320
     25 C         138.9352  144.8795  164.3366 C.3     1  UNL1        0.0327
     26 C         140.8889  142.2962  167.4606 C.ar    1  UNL1        0.2250
     27 C         142.2933  141.8093  167.2599 C.ar    1  UNL1        0.0593
     28 C         143.0466  142.1835  166.0179 C.ar    1  UNL1        0.0254
     29 C         142.3954  143.0446  164.9766 C.ar    1  UNL1        0.0990
     30 N         143.1486  143.4188  163.7346 N.ar    1  UNL1       -0.2400
     31 C         142.4974  144.2799  162.6932 C.ar    1  UNL1        0.1281
     32 C         141.0929  144.7668  162.8939 C.ar    1  UNL1        0.1566
     33 F         140.4417  145.6279  161.8526 F       1  UNL1       -0.2028
     34 C         140.3396  144.3926  164.1359 C.ar    1  UNL1        0.0261
     35 C         140.9909  143.5315  165.1773 C.ar    1  UNL1        0.1002
     36 N         140.2377  143.1573  166.4193 N.ar    1  UNL1       -0.2104
     37 O         140.1356  141.9220  168.7026 O.3     1  UNL1       -0.4575
     38 C         140.5104  142.5336  170.0199 C.3     1  UNL1        0.2375
     39 C         141.4136  141.7927  170.9609 C.3     1  UNL1        0.1696
     40 O         142.2422  142.5489  171.9566 O.3     1  UNL1       -0.3793
     41 H         142.7650  141.9242  172.4832 H       1  UNL1        0.2106
     42 N         140.2382  139.4890  170.7130 N.3     1  UNL1       -0.3190
     43 C         141.4880  140.2955  170.9062 C.3     1  UNL1        0.0986
     44 H         140.4726  138.4964  170.7002 H       1  UNL1        0.1189
     45 H         139.8007  139.7464  169.8283 H       1  UNL1        0.1189
@<TRIPOS>BOND
     1    42    43    1
     2    43    39    1
     3    39    40    1
     4    39    38    1
     5    38    37    1
     6    37    26    1
     7    26    27   ar
     8    27    28   ar
     9    28    29   ar
    10    29    30   ar
    11    30    31   ar
    12    31    32   ar
    13    32    33    1
    14    32    34   ar
    15    34    25    1
    16    25    24    1
    17    24     1    1
    18     1     2    1
    19     2     3    1
    20     3     4    1
    21     4     9    1
    22     9    11    1
    23    11    12    1
    24    12    13   ar
    25    13    14   ar
    26    14    15   ar
    27    15    16   ar
    28    16    17   ar
    29    16    18    1
    30    18    19   am
    31    19    20    2
    32    19    21    1
    33    21    22    1
    34     4     5    1
    35     5     6    1
    36     4     7    1
    37     7     8    1
    38    34    35   ar
    39    35    36   ar
    40    36    26   ar
    41    35    29   ar
    42     6     1    1
    43     8     1    1
    44    17    12   ar
    45    22    15    1
    46    42    44    1
    47    42    45    1
    48    40    41    1
    49     9    10    1
    50    18    23    1
@<TRIPOS>MOLECULE
*****
 45 50 0 0 0
SMALL
GASTEIGER

@<TRIPOS>ATOM
      1 C         141.9468  138.1567  164.2041 C.3     1  UNL1        0.0932
      2 C         142.1631  138.5024  162.7606 C.3     1  UNL1        0.0286
      3 C         143.3698  139.2939  162.3516 C.3     1  UNL1        0.0193
      4 C         144.3603  139.7399  163.3862 C.3     1  UNL1        0.0700
      5 C         144.1440  139.3942  164.8297 C.3     1  UNL1        0.0193
      6 C         142.9372  138.6026  165.2387 C.3     1  UNL1        0.0286
      7 C         143.7141  139.3081  163.6584 C.3     1  UNL1        0.1562
      8 O         142.6230  138.5924  164.0282 O.3     1  UNL1       -0.3572
      9 N         145.5669  140.5314  162.9772 N.3     1  UNL1       -0.2926
     10 H         145.6283  140.4707  161.9608 H       1  UNL1        0.1236
     11 C         145.6651  141.9858  163.3308 C.3     1  UNL1        0.1152
     12 C         144.4637  142.8735  163.1944 C.ar    1  UNL1        0.0765
     13 C         143.8327  143.4745  164.4154 C.ar    1  UNL1        0.0193
     14 C         142.6314  144.3622  164.2790 C.ar    1  UNL1        0.0411
     15 C         142.0609  144.6490  162.9216 C.ar    1  UNL1        0.1708
     16 C         142.6919  144.0481  161.7007 C.ar    1  UNL1        0.1682
     17 N         143.8933  143.1603  161.8370 N.ar    1  UNL1       -0.2304
     18 N         142.1215  144.3349  160.3434 N.am    1  UNL1       -0.2639
     19 C         140.9201  145.2227  160.2070 C.2     1  UNL1        0.2718
     20 O         140.3497  145.5095  158.8496 O.2     1  UNL1       -0.2707
     21 C         140.2891  145.8236  161.4280 C.3     1  UNL1        0.2898
     22 O         140.8595  145.5368  162.7853 O.3     1  UNL1       -0.4628
     23 H         142.5356  143.9405  159.5420 H       1  UNL1        0.1565
     24 C         140.7401  137.3652  164.6132 C.3     1  UNL1        0.0320
     25 C         139.5079  138.0717  165.0956 C.3     1  UNL1        0.0327
     26 C         140.3074  142.1500  166.8212 C.ar    1  UNL1        0.2250
     27 C         139.8176  143.3753  166.1079 C.ar    1  UNL1        0.0593
     28 C         139.0613  143.2412  164.8195 C.ar    1  UNL1        0.0254
     29 C         138.7948  141.8818  164.2443 C.ar    1  UNL1        0.0990
     30 N         138.0386  141.7476  162.9559 N.ar    1  UNL1       -0.2400
     31 C         137.7720  140.3882  162.3807 C.ar    1  UNL1        0.1281
     32 C         138.2618  139.1628  163.0939 C.ar    1  UNL1        0.1566
     33 F         137.9953  137.8034  162.5187 F       1  UNL1       -0.2028
     34 C         139.0181  139.2970  164.3824 C.ar    1  UNL1        0.0261
     35 C         139.2846  140.6565  164.9576 C.ar    1  UNL1        0.1002
     36 N         140.0409  140.7906  166.2460 N.ar    1  UNL1       -0.2104
     37 O         141.0637  142.2842  168.1096 O.3     1  UNL1       -0.4575
     38 C         140.3411  142.6672  169.3670 C.3     1  UNL1        0.2375
     39 C         140.2913  141.7133  170.5236 C.3     1  UNL1        0.1696
     40 O         140.4535  142.2242  171.9246 O.3     1  UNL1       -0.3793
     41 H         140.3963  141.4830  172.5477 H       1  UNL1        0.2106
     42 N         139.1998  139.7960  169.1517 N.3     1  UNL1       -0.3190
     43 C         140.0794  140.2486  170.2792 C.3     1  UNL1        0.0986
     44 H         139.1691  138.7766  169.1325 H       1  UNL1        0.1189
     45 H         139.5747  140.1415  168.2682 H       1  UNL1        0.1189
@<TRIPOS>BOND
     1    42    43    1
     2    43    39    1
     3    39    40    1
     4    39    38    1
     5    38    37    1
     6    37    26    1
     7    26    27   ar
     8    27    28   ar
     9    28    29   ar
    10    29    30   ar
    11    30    31   ar
    12    31    32   ar
    13    32    33    1
    14    32    34   ar
    15    34    25    1
    16    25    24    1
    17    24     1    1
    18     1     2    1
    19     2     3    1
    20     3     4    1
    21     4     9    1
    22     9    11    1
    23    11    12    1
    24    12    13   ar
    25    13    14   ar
    26    14    15   ar
    27    15    16   ar
    28    16    17   ar
    29    16    18    1
    30    18    19   am
    31    19    20    2
    32    19    21    1
    33    21    22    1
    34     4     5    1
    35     5     6    1
    36     4     7    1
    37     7     8    1
    38    34    35   ar
    39    35    36   ar
    40    36    26   ar
    41    35    29   ar
    42     6     1    1
    43     8     1    1
    44    17    12   ar
    45    22    15    1
    46    42    44    1
    47    42    45    1
    48    40    41    1
    49     9    10    1
    50    18    23    1
@<TRIPOS>MOLECULE
*****
 45 50 0 0 0
SMALL
GASTEIGER

@<TRIPOS>ATOM
      1 C         141.5893  138.0171  164.4312 C.3     1  UNL1        0.0932
      2 C         141.7094  137.8507  162.9453 C.3     1  UNL1        0.0286
      3 C         140.4761  137.8173  162.0922 C.3     1  UNL1        0.0193
      4 C         139.1225  137.9503  162.7250 C.3     1  UNL1        0.0700
      5 C         139.0024  138.1167  164.2109 C.3     1  UNL1        0.0193
      6 C         140.2358  138.1501  165.0640 C.3     1  UNL1        0.0286
      7 C         139.7697  137.9744  163.2336 C.3     1  UNL1        0.1562
      8 O         140.8849  138.0046  164.0050 O.3     1  UNL1       -0.3572
      9 N         137.8892  137.9169  161.8720 N.3     1  UNL1       -0.2926
     10 H         137.0946  137.8357  162.5062 H       1  UNL1        0.1236
     11 C         137.5880  139.0564  160.9442 C.3     1  UNL1        0.1152
     12 C         137.9736  140.4552  161.3243 C.ar    1  UNL1        0.0765
     13 C         137.3718  141.0949  162.5404 C.ar    1  UNL1        0.0193
     14 C         137.7574  142.4937  162.9206 C.ar    1  UNL1        0.0411
     15 C         138.7448  143.2529  162.0848 C.ar    1  UNL1        0.1708
     16 C         139.3466  142.6133  160.8688 C.ar    1  UNL1        0.1682
     17 N         138.9610  141.2145  160.4885 N.ar    1  UNL1       -0.2304
     18 N         140.3340  143.3726  160.0330 N.am    1  UNL1       -0.2639
     19 C         140.7196  144.7714  160.4132 C.2     1  UNL1        0.2718
     20 O         141.7071  145.5306  159.5774 O.2     1  UNL1       -0.2707
     21 C         140.1178  145.4110  161.6292 C.3     1  UNL1        0.2898
     22 O         139.1304  144.6518  162.4650 O.3     1  UNL1       -0.4628
     23 H         140.7290  142.9528  159.2349 H       1  UNL1        0.1565
     24 C         142.8226  138.0505  165.2843 C.3     1  UNL1        0.0320
     25 C         143.6845  139.2779  165.3089 C.3     1  UNL1        0.0327
     26 C         140.5149  141.7949  167.2757 C.ar    1  UNL1        0.2250
     27 C         140.0426  143.0564  166.6159 C.ar    1  UNL1        0.0593
     28 C         140.6267  143.4790  165.3005 C.ar    1  UNL1        0.0254
     29 C         141.6832  142.6400  164.6449 C.ar    1  UNL1        0.0990
     30 N         142.2674  143.0626  163.3295 N.ar    1  UNL1       -0.2400
     31 C         143.3239  142.2236  162.6739 C.ar    1  UNL1        0.1281
     32 C         143.7963  140.9620  163.3337 C.ar    1  UNL1        0.1566
     33 F         144.8528  140.1230  162.6781 F       1  UNL1       -0.2028
     34 C         143.2122  140.5395  164.6491 C.ar    1  UNL1        0.0261
     35 C         142.1556  141.3785  165.3047 C.ar    1  UNL1        0.1002
     36 N         141.5715  140.9559  166.6201 N.ar    1  UNL1       -0.2104
     37 O         139.9308  141.3723  168.5911 O.3     1  UNL1       -0.4575
     38 C         140.4648  141.9489  169.8687 C.3     1  UNL1        0.2375
     39 C         141.3237  141.1107  170.7685 C.3     1  UNL1        0.1696
     40 O         140.8378  140.7417  172.1388 O.3     1  UNL1       -0.3793
     41 H         141.5088  140.2019  172.5853 H       1  UNL1        0.2106
     42 N         143.4492  139.6582  171.1187 N.3     1  UNL1       -0.3190
     43 C         142.6686  140.6416  170.2980 C.3     1  UNL1        0.0986
     44 H         144.3327  139.4520  170.6527 H       1  UNL1        0.1189
     45 H         142.9105  138.7982  171.2220 H       1  UNL1        0.1189
@<TRIPOS>BOND
     1    42    43    1
     2    43    39    1
     3    39    40    1
     4    39    38    1
     5    38    37    1
     6    37    26    1
     7    26    27   ar
     8    27    28   ar
     9    28    29   ar
    10    29    30   ar
    11    30    31   ar
    12    31    32   ar
    13    32    33    1
    14    32    34   ar
    15    34    25    1
    16    25    24    1
    17    24     1    1
    18     1     2    1
    19     2     3    1
    20     3     4    1
    21     4     9    1
    22     9    11    1
    23    11    12    1
    24    12    13   ar
    25    13    14   ar
    26    14    15   ar
    27    15    16   ar
    28    16    17   ar
    29    16    18    1
    30    18    19   am
    31    19    20    2
    32    19    21    1
    33    21    22    1
    34     4     5    1
    35     5     6    1
    36     4     7    1
    37     7     8    1
    38    34    35   ar
    39    35    36   ar
    40    36    26   ar
    41    35    29   ar
    42     6     1    1
    43     8     1    1
    44    17    12   ar
    45    22    15    1
    46    42    44    1
    47    42    45    1
    48    40    41    1
    49     9    10    1
    50    18    23    1
@<TRIPOS>MOLECULE
*****
 45 50 0 0 0
SMALL
GASTEIGER

@<TRIPOS>ATOM
      1 C         140.9767  144.9196  162.9991 C.3     1  UNL1        0.0932
      2 C         142.0837  144.9680  164.0101 C.3     1  UNL1        0.0286
      3 C         143.4396  144.4279  163.6640 C.3     1  UNL1        0.0193
      4 C         143.6885  143.8394  162.3069 C.3     1  UNL1        0.0700
      5 C         142.5814  143.7910  161.2959 C.3     1  UNL1        0.0193
      6 C         141.2255  144.3311  161.6421 C.3     1  UNL1        0.0286
      7 C         142.9289  144.1229  162.4505 C.3     1  UNL1        0.1562
      8 O         141.7029  144.6113  162.7635 O.3     1  UNL1       -0.3572
      9 N         145.0444  143.2993  161.9608 N.3     1  UNL1       -0.2926
     10 H         145.6634  143.5393  162.7352 H       1  UNL1        0.1236
     11 C         145.2238  141.8328  161.7016 C.3     1  UNL1        0.1152
     12 C         144.4947  140.8277  162.5431 C.ar    1  UNL1        0.0765
     13 C         145.1088  140.3303  163.8181 C.ar    1  UNL1        0.0193
     14 C         144.3797  139.3253  164.6596 C.ar    1  UNL1        0.0411
     15 C         143.0365  138.8175  164.2263 C.ar    1  UNL1        0.1708
     16 C         142.4223  139.3148  162.9514 C.ar    1  UNL1        0.1682
     17 N         143.1514  140.3199  162.1097 N.ar    1  UNL1       -0.2304
     18 N         141.0790  138.8071  162.5180 N.am    1  UNL1       -0.2639
     19 C         140.3499  137.8020  163.3595 C.2     1  UNL1        0.2718
     20 O         139.0067  137.2942  162.9261 O.2     1  UNL1       -0.2707
     21 C         140.9641  137.3046  164.6345 C.3     1  UNL1        0.2898
     22 O         142.3074  137.8124  165.0679 O.3     1  UNL1       -0.4628
     23 H         140.6759  139.1335  161.6812 H       1  UNL1        0.1565
     24 C         139.6208  145.4597  163.3452 C.3     1  UNL1        0.0320
     25 C         138.7584  144.7405  164.3399 C.3     1  UNL1        0.0327
     26 C         140.6554  142.2517  167.5736 C.ar    1  UNL1        0.2250
     27 C         140.5473  140.7563  167.5297 C.ar    1  UNL1        0.0593
     28 C         139.8069  140.0904  166.4079 C.ar    1  UNL1        0.0254
     29 C         139.1746  140.9200  165.3300 C.ar    1  UNL1        0.0990
     30 N         138.4342  140.2542  164.2082 N.ar    1  UNL1       -0.2400
     31 C         137.8019  141.0837  163.1303 C.ar    1  UNL1        0.1281
     32 C         137.9099  142.5792  163.1742 C.ar    1  UNL1        0.1566
     33 F         137.2776  143.4088  162.0963 F       1  UNL1       -0.2028
     34 C         138.6504  143.2451  164.2960 C.ar    1  UNL1        0.0261
     35 C         139.2827  142.4154  165.3739 C.ar    1  UNL1        0.1002
     36 N         140.0231  143.0813  166.4957 N.ar    1  UNL1       -0.2104
     37 O         141.3958  142.9175  168.6954 O.3     1  UNL1       -0.4575
     38 C         142.2050  142.0940  169.6530 C.3     1  UNL1        0.2375
     39 C         141.6418  141.7365  170.9964 C.3     1  UNL1        0.1696
     40 O         142.1979  142.3720  172.2361 O.3     1  UNL1       -0.3793
     41 H         141.7254  142.0336  173.0128 H       1  UNL1        0.2106
     42 N         140.7829  139.2896  170.8390 N.3     1  UNL1       -0.3190
     43 C         140.5223  140.7435  171.1002 C.3     1  UNL1        0.0986
     44 H         139.9168  138.7630  170.9533 H       1  UNL1        0.1189
     45 H         141.4798  138.9451  171.4993 H       1  UNL1        0.1189
@<TRIPOS>BOND
     1    42    43    1
     2    43    39    1
     3    39    40    1
     4    39    38    1
     5    38    37    1
     6    37    26    1
     7    26    27   ar
     8    27    28   ar
     9    28    29   ar
    10    29    30   ar
    11    30    31   ar
    12    31    32   ar
    13    32    33    1
    14    32    34   ar
    15    34    25    1
    16    25    24    1
    17    24     1    1
    18     1     2    1
    19     2     3    1
    20     3     4    1
    21     4     9    1
    22     9    11    1
    23    11    12    1
    24    12    13   ar
    25    13    14   ar
    26    14    15   ar
    27    15    16   ar
    28    16    17   ar
    29    16    18    1
    30    18    19   am
    31    19    20    2
    32    19    21    1
    33    21    22    1
    34     4     5    1
    35     5     6    1
    36     4     7    1
    37     7     8    1
    38    34    35   ar
    39    35    36   ar
    40    36    26   ar
    41    35    29   ar
    42     6     1    1
    43     8     1    1
    44    17    12   ar
    45    22    15    1
    46    42    44    1
    47    42    45    1
    48    40    41    1
    49     9    10    1
    50    18    23    1
@<TRIPOS>MOLECULE
*****
 45 50 0 0 0
SMALL
GASTEIGER

@<TRIPOS>ATOM
      1 C         143.1072  138.7242  162.6607 C.3     1  UNL1        0.0932
      2 C         142.2478  137.8681  163.5430 C.3     1  UNL1        0.0286
      3 C         140.8525  137.5174  163.1187 C.3     1  UNL1        0.0193
      4 C         140.3164  138.0230  161.8121 C.3     1  UNL1        0.0700
      5 C         141.1758  138.8791  160.9298 C.3     1  UNL1        0.0193
      6 C         142.5712  139.2297  161.3541 C.3     1  UNL1        0.0286
      7 C         141.0872  138.2415  162.0021 C.3     1  UNL1        0.1562
      8 O         142.3489  138.5586  162.3857 O.3     1  UNL1       -0.3572
      9 N         138.9211  137.6724  161.3879 N.3     1  UNL1       -0.2926
     10 H         138.7376  136.7291  161.7299 H       1  UNL1        0.1236
     11 C         137.7672  138.5243  161.8270 C.3     1  UNL1        0.1152
     12 C         138.0203  139.8388  162.5037 C.ar    1  UNL1        0.0765
     13 C         138.0304  139.9217  164.0014 C.ar    1  UNL1        0.0193
     14 C         138.2835  141.2362  164.6781 C.ar    1  UNL1        0.0411
     15 C         138.5265  142.4679  163.8571 C.ar    1  UNL1        0.1708
     16 C         138.5165  142.3850  162.3595 C.ar    1  UNL1        0.1682
     17 N         138.2634  141.0704  161.6827 N.ar    1  UNL1       -0.2304
     18 N         138.7595  143.6166  161.5385 N.am    1  UNL1       -0.2639
     19 C         139.0126  144.9312  162.2152 C.2     1  UNL1        0.2718
     20 O         139.2556  146.1628  161.3942 O.2     1  UNL1       -0.2707
     21 C         139.0227  145.0141  163.7129 C.3     1  UNL1        0.2898
     22 O         138.7796  143.7825  164.5339 O.3     1  UNL1       -0.4628
     23 H         138.7529  143.5622  160.5555 H       1  UNL1        0.1565
     24 C         144.5025  139.0748  163.0849 C.3     1  UNL1        0.0320
     25 C         144.7239  140.0577  164.1963 C.3     1  UNL1        0.0327
     26 C         141.7758  140.5376  167.5620 C.ar    1  UNL1        0.2250
     27 C         140.9315  141.7743  167.6488 C.ar    1  UNL1        0.0593
     28 C         141.0698  142.8510  166.6137 C.ar    1  UNL1        0.0254
     29 C         142.0525  142.6911  165.4918 C.ar    1  UNL1        0.0990
     30 N         142.1908  143.7679  164.4567 N.ar    1  UNL1       -0.2400
     31 C         143.1735  143.6079  163.3348 C.ar    1  UNL1        0.1281
     32 C         144.0179  142.3711  163.2480 C.ar    1  UNL1        0.1566
     33 F         145.0006  142.2112  162.1261 F       1  UNL1       -0.2028
     34 C         143.8796  141.2944  164.2831 C.ar    1  UNL1        0.0261
     35 C         142.8968  141.4544  165.4050 C.ar    1  UNL1        0.1002
     36 N         142.7585  140.3776  166.4401 N.ar    1  UNL1       -0.2104
     37 O         141.6375  139.4608  168.5971 O.3     1  UNL1       -0.4575
     38 C         141.8902  139.7729  170.0424 C.3     1  UNL1        0.2375
     39 C         140.7779  140.2956  170.9024 C.3     1  UNL1        0.1696
     40 O         139.6074  139.4170  171.2307 O.3     1  UNL1       -0.3793
     41 H         138.9841  139.9049  171.7914 H       1  UNL1        0.2106
     42 N         142.1629  142.3362  171.7199 N.3     1  UNL1       -0.3190
     43 C         140.8363  141.6971  171.4341 C.3     1  UNL1        0.0986
     44 H         142.0158  143.2819  172.0725 H       1  UNL1        0.1189
     45 H         142.7134  142.3749  170.8621 H       1  UNL1        0.1189
@<TRIPOS>BOND
     1    42    43    1
     2    43    39    1
     3    39    40    1
     4    39    38    1
     5    38    37    1
     6    37    26    1
     7    26    27   ar
     8    27    28   ar
     9    28    29   ar
    10    29    30   ar
    11    30    31   ar
    12    31    32   ar
    13    32    33    1
    14    32    34   ar
    15    34    25    1
    16    25    24    1
    17    24     1    1
    18     1     2    1
    19     2     3    1
    20     3     4    1
    21     4     9    1
    22     9    11    1
    23    11    12    1
    24    12    13   ar
    25    13    14   ar
    26    14    15   ar
    27    15    16   ar
    28    16    17   ar
    29    16    18    1
    30    18    19   am
    31    19    20    2
    32    19    21    1
    33    21    22    1
    34     4     5    1
    35     5     6    1
    36     4     7    1
    37     7     8    1
    38    34    35   ar
    39    35    36   ar
    40    36    26   ar
    41    35    29   ar
    42     6     1    1
    43     8     1    1
    44    17    12   ar
    45    22    15    1
    46    42    44    1
    47    42    45    1
    48    40    41    1
    49     9    10    1
    50    18    23    1
@<TRIPOS>MOLECULE
*****
 45 50 0 0 0
SMALL
GASTEIGER

@<TRIPOS>ATOM
      1 C         142.1168  144.7251  163.5299 C.3     1  UNL1        0.0932
      2 C         140.9020  144.4233  164.3564 C.3     1  UNL1        0.0286
      3 C         139.6150  144.0423  163.6868 C.3     1  UNL1        0.0193
      4 C         139.5427  143.9632  162.1906 C.3     1  UNL1        0.0700
      5 C         140.7575  144.2651  161.3641 C.3     1  UNL1        0.0193
      6 C         142.0446  144.6460  162.0337 C.3     1  UNL1        0.0286
      7 C         140.2700  144.1762  162.5124 C.3     1  UNL1        0.1562
      8 O         141.4338  144.5207  163.1178 O.3     1  UNL1       -0.3572
      9 N         138.2557  143.5822  161.5210 N.3     1  UNL1       -0.2926
     10 H         138.1036  144.2560  160.7705 H       1  UNL1        0.1236
     11 C         138.0998  142.2183  160.9166 C.3     1  UNL1        0.1152
     12 C         138.2815  140.9960  161.7668 C.ar    1  UNL1        0.0765
     13 C         138.7394  139.7105  161.1439 C.ar    1  UNL1        0.0193
     14 C         138.9211  138.4881  161.9941 C.ar    1  UNL1        0.0411
     15 C         138.6449  138.5512  163.4671 C.ar    1  UNL1        0.1708
     16 C         138.1870  139.8366  164.0899 C.ar    1  UNL1        0.1682
     17 N         138.0053  141.0590  163.2398 N.ar    1  UNL1       -0.2304
     18 N         137.9108  139.8997  165.5629 N.am    1  UNL1       -0.2639
     19 C         138.0926  138.6774  166.4131 C.2     1  UNL1        0.2718
     20 O         137.8164  138.7405  167.8861 O.2     1  UNL1       -0.2707
     21 C         138.5505  137.3919  165.7903 C.3     1  UNL1        0.2898
     22 O         138.8267  137.3288  164.3173 O.3     1  UNL1       -0.4628
     23 H         137.6103  140.7434  165.9717 H       1  UNL1        0.1565
     24 C         143.4038  145.1061  164.1995 C.3     1  UNL1        0.0320
     25 C         144.4162  144.0509  164.5341 C.3     1  UNL1        0.0327
     26 C         142.7815  141.8388  168.0957 C.ar    1  UNL1        0.2250
     27 C         142.4201  140.3880  167.9762 C.ar    1  UNL1        0.0593
     28 C         142.6036  139.6744  166.6696 C.ar    1  UNL1        0.0254
     29 C         143.1484  140.4118  165.4825 C.ar    1  UNL1        0.0990
     30 N         143.3319  139.6982  164.1759 N.ar    1  UNL1       -0.2400
     31 C         143.8768  140.4356  162.9887 C.ar    1  UNL1        0.1281
     32 C         144.2382  141.8865  163.1081 C.ar    1  UNL1        0.1566
     33 F         144.7831  142.6238  161.9209 F       1  UNL1       -0.2028
     34 C         144.0547  142.6001  164.4147 C.ar    1  UNL1        0.0261
     35 C         143.5098  141.8626  165.6019 C.ar    1  UNL1        0.1002
     36 N         143.3264  142.5762  166.9085 N.ar    1  UNL1       -0.2104
     37 O         142.5981  142.5524  169.4023 O.3     1  UNL1       -0.4575
     38 C         141.6840  141.9826  170.4461 C.3     1  UNL1        0.2375
     39 C         140.2109  142.2591  170.3849 C.3     1  UNL1        0.1696
     40 O         139.6878  143.6193  170.7400 O.3     1  UNL1       -0.3793
     41 H         138.7222  143.6283  170.6484 H       1  UNL1        0.2106
     42 N         139.3143  139.8337  170.6372 N.3     1  UNL1       -0.3190
     43 C         139.2611  141.1753  169.9685 C.3     1  UNL1        0.0986
     44 H         138.6035  139.2239  170.2330 H       1  UNL1        0.1189
     45 H         139.1392  139.9444  171.6359 H       1  UNL1        0.1189
@<TRIPOS>BOND
     1    42    43    1
     2    43    39    1
     3    39    40    1
     4    39    38    1
     5    38    37    1
     6    37    26    1
     7    26    27   ar
     8    27    28   ar
     9    28    29   ar
    10    29    30   ar
    11    30    31   ar
    12    31    32   ar
    13    32    33    1
    14    32    34   ar
    15    34    25    1
    16    25    24    1
    17    24     1    1
    18     1     2    1
    19     2     3    1
    20     3     4    1
    21     4     9    1
    22     9    11    1
    23    11    12    1
    24    12    13   ar
    25    13    14   ar
    26    14    15   ar
    27    15    16   ar
    28    16    17   ar
    29    16    18    1
    30    18    19   am
    31    19    20    2
    32    19    21    1
    33    21    22    1
    34     4     5    1
    35     5     6    1
    36     4     7    1
    37     7     8    1
    38    34    35   ar
    39    35    36   ar
    40    36    26   ar
    41    35    29   ar
    42     6     1    1
    43     8     1    1
    44    17    12   ar
    45    22    15    1
    46    42    44    1
    47    42    45    1
    48    40    41    1
    49     9    10    1
    50    18    23    1
@<TRIPOS>MOLECULE
*****
 45 50 0 0 0
SMALL
GASTEIGER

@<TRIPOS>ATOM
      1 C         142.4133  142.4705  165.2283 C.3     1  UNL1        0.0932
      2 C         142.4014  143.1221  163.8773 C.3     1  UNL1        0.0286
      3 C         141.2435  143.9846  163.4708 C.3     1  UNL1        0.0193
      4 C         140.0974  144.1956  164.4154 C.3     1  UNL1        0.0700
      5 C         140.1094  143.5441  165.7665 C.3     1  UNL1        0.0193
      6 C         141.2674  142.6815  166.1729 C.3     1  UNL1        0.0286
      7 C         140.7098  143.7145  164.6827 C.3     1  UNL1        0.1562
      8 O         141.7569  142.9345  165.0503 O.3     1  UNL1       -0.3572
      9 N         138.9395  145.0581  164.0089 N.3     1  UNL1       -0.2926
     10 H         139.3030  145.7485  163.3519 H       1  UNL1        0.1236
     11 C         137.7338  144.4403  163.3650 C.3     1  UNL1        0.1152
     12 C         137.8875  143.2328  162.4886 C.ar    1  UNL1        0.0765
     13 C         137.5525  141.8714  163.0220 C.ar    1  UNL1        0.0193
     14 C         137.7062  140.6638  162.1456 C.ar    1  UNL1        0.0411
     15 C         138.1950  140.8176  160.7358 C.ar    1  UNL1        0.1708
     16 C         138.5300  142.1789  160.2024 C.ar    1  UNL1        0.1682
     17 N         138.3763  143.3865  161.0788 N.ar    1  UNL1       -0.2304
     18 N         139.0187  142.3326  158.7926 N.am    1  UNL1       -0.2639
     19 C         139.1724  141.1251  157.9162 C.2     1  UNL1        0.2718
     20 O         139.6611  141.2788  156.5064 O.2     1  UNL1       -0.2707
     21 C         138.8374  139.7637  158.4496 C.3     1  UNL1        0.2898
     22 O         138.3487  139.6099  159.8594 O.3     1  UNL1       -0.4628
     23 H         139.2386  143.2261  158.4425 H       1  UNL1        0.1565
     24 C         143.5713  141.6080  165.6348 C.3     1  UNL1        0.0320
     25 C         143.4111  140.1178  165.6966 C.3     1  UNL1        0.0327
     26 C         139.2147  139.1710  167.0169 C.ar    1  UNL1        0.2250
     27 C         138.2715  138.4785  166.0784 C.ar    1  UNL1        0.0593
     28 C         138.7270  138.1016  164.6999 C.ar    1  UNL1        0.0254
     29 C         140.1258  138.4172  164.2598 C.ar    1  UNL1        0.0990
     30 N         140.5814  138.0403  162.8812 N.ar    1  UNL1       -0.2400
     31 C         141.9801  138.3559  162.4411 C.ar    1  UNL1        0.1281
     32 C         142.9235  139.0484  163.3796 C.ar    1  UNL1        0.1566
     33 F         144.3223  139.3640  162.9394 F       1  UNL1       -0.2028
     34 C         142.4679  139.4253  164.7581 C.ar    1  UNL1        0.0261
     35 C         141.0690  139.1097  165.1982 C.ar    1  UNL1        0.1002
     36 N         140.6135  139.4866  166.5768 N.ar    1  UNL1       -0.2104
     37 O         138.7591  139.5479  168.3954 O.3     1  UNL1       -0.4575
     38 C         139.5080  140.5881  169.1746 C.3     1  UNL1        0.2375
     39 C         140.2815  140.1959  170.3985 C.3     1  UNL1        0.1696
     40 O         139.6698  139.2699  171.4076 O.3     1  UNL1       -0.3793
     41 H         140.2978  139.1202  172.1315 H       1  UNL1        0.2106
     42 N         142.2730  140.7119  171.9853 N.3     1  UNL1       -0.3190
     43 C         141.6668  140.7298  170.6134 C.3     1  UNL1        0.0986
     44 H         143.2115  141.1097  171.9475 H       1  UNL1        0.1189
     45 H         142.3247  139.7503  172.3216 H       1  UNL1        0.1189
@<TRIPOS>BOND
     1    42    43    1
     2    43    39    1
     3    39    40    1
     4    39    38    1
     5    38    37    1
     6    37    26    1
     7    26    27   ar
     8    27    28   ar
     9    28    29   ar
    10    29    30   ar
    11    30    31   ar
    12    31    32   ar
    13    32    33    1
    14    32    34   ar
    15    34    25    1
    16    25    24    1
    17    24     1    1
    18     1     2    1
    19     2     3    1
    20     3     4    1
    21     4     9    1
    22     9    11    1
    23    11    12    1
    24    12    13   ar
    25    13    14   ar
    26    14    15   ar
    27    15    16   ar
    28    16    17   ar
    29    16    18    1
    30    18    19   am
    31    19    20    2
    32    19    21    1
    33    21    22    1
    34     4     5    1
    35     5     6    1
    36     4     7    1
    37     7     8    1
    38    34    35   ar
    39    35    36   ar
    40    36    26   ar
    41    35    29   ar
    42     6     1    1
    43     8     1    1
    44    17    12   ar
    45    22    15    1
    46    42    44    1
    47    42    45    1
    48    40    41    1
    49     9    10    1
    50    18    23    1
@<TRIPOS>MOLECULE
*****
 45 50 0 0 0
SMALL
GASTEIGER

@<TRIPOS>ATOM
      1 C         143.8763  142.2150  163.4982 C.3     1  UNL1        0.0932
      2 C         143.2564  142.9654  164.6395 C.3     1  UNL1        0.0286
      3 C         142.3949  144.1632  164.3698 C.3     1  UNL1        0.0193
      4 C         142.1531  144.6107  162.9586 C.3     1  UNL1        0.0700
      5 C         142.7730  143.8603  161.8172 C.3     1  UNL1        0.0193
      6 C         143.6346  142.6624  162.0871 C.3     1  UNL1        0.0286
      7 C         142.6325  143.9486  163.0568 C.3     1  UNL1        0.1562
      8 O         143.4116  142.8654  163.3008 O.3     1  UNL1       -0.3572
      9 N         141.2916  145.8086  162.6888 N.3     1  UNL1       -0.2926
     10 H         141.5784  146.1796  161.7830 H       1  UNL1        0.1236
     11 C         139.7992  145.6645  162.6448 C.3     1  UNL1        0.1152
     12 C         139.1824  144.3174  162.4107 C.ar    1  UNL1        0.0765
     13 C         138.5634  143.5672  163.5528 C.ar    1  UNL1        0.0193
     14 C         137.9466  142.2201  163.3187 C.ar    1  UNL1        0.0411
     15 C         137.9487  141.6231  161.9426 C.ar    1  UNL1        0.1708
     16 C         138.5676  142.3732  160.8006 C.ar    1  UNL1        0.1682
     17 N         139.1844  143.7204  161.0347 N.ar    1  UNL1       -0.2304
     18 N         138.5697  141.7762  159.4245 N.am    1  UNL1       -0.2639
     19 C         137.9528  140.4291  159.1905 C.2     1  UNL1        0.2718
     20 O         137.9549  139.8321  157.8144 O.2     1  UNL1       -0.2707
     21 C         137.3339  139.6789  160.3325 C.3     1  UNL1        0.2898
     22 O         137.3318  140.2759  161.7086 O.3     1  UNL1       -0.4628
     23 H         138.9759  142.2686  158.6750 H       1  UNL1        0.1565
     24 C         144.7378  141.0171  163.7680 C.3     1  UNL1        0.0320
     25 C         144.1352  139.7780  164.3608 C.3     1  UNL1        0.0327
     26 C         140.2233  139.7682  166.5851 C.ar    1  UNL1        0.2250
     27 C         139.0066  139.1529  165.9598 C.ar    1  UNL1        0.0593
     28 C         139.0938  138.5409  164.5931 C.ar    1  UNL1        0.0254
     29 C         140.3977  138.5442  163.8517 C.ar    1  UNL1        0.0990
     30 N         140.4849  137.9321  162.4850 N.ar    1  UNL1       -0.2400
     31 C         141.7888  137.9354  161.7436 C.ar    1  UNL1        0.1281
     32 C         143.0056  138.5507  162.3688 C.ar    1  UNL1        0.1566
     33 F         144.3096  138.5539  161.6274 F       1  UNL1       -0.2028
     34 C         142.9184  139.1627  163.7355 C.ar    1  UNL1        0.0261
     35 C         141.6144  139.1594  164.4770 C.ar    1  UNL1        0.1002
     36 N         141.5273  139.7714  165.8436 N.ar    1  UNL1       -0.2104
     37 O         140.1361  140.3802  167.9518 O.3     1  UNL1       -0.4575
     38 C         140.9804  139.8432  169.0693 C.3     1  UNL1        0.2375
     39 C         140.6393  140.1732  170.4922 C.3     1  UNL1        0.1696
     40 O         139.6415  139.3372  171.2375 O.3     1  UNL1       -0.3793
     41 H         139.5376  139.6836  172.1376 H       1  UNL1        0.2106
     42 N         140.4786  142.2784  172.0063 N.3     1  UNL1       -0.3190
     43 C         141.2961  141.3392  171.1698 C.3     1  UNL1        0.0986
     44 H         141.0820  143.0068  172.3879 H       1  UNL1        0.1189
     45 H         140.0438  141.7619  172.7709 H       1  UNL1        0.1189
@<TRIPOS>BOND
     1    42    43    1
     2    43    39    1
     3    39    40    1
     4    39    38    1
     5    38    37    1
     6    37    26    1
     7    26    27   ar
     8    27    28   ar
     9    28    29   ar
    10    29    30   ar
    11    30    31   ar
    12    31    32   ar
    13    32    33    1
    14    32    34   ar
    15    34    25    1
    16    25    24    1
    17    24     1    1
    18     1     2    1
    19     2     3    1
    20     3     4    1
    21     4     9    1
    22     9    11    1
    23    11    12    1
    24    12    13   ar
    25    13    14   ar
    26    14    15   ar
    27    15    16   ar
    28    16    17   ar
    29    16    18    1
    30    18    19   am
    31    19    20    2
    32    19    21    1
    33    21    22    1
    34     4     5    1
    35     5     6    1
    36     4     7    1
    37     7     8    1
    38    34    35   ar
    39    35    36   ar
    40    36    26   ar
    41    35    29   ar
    42     6     1    1
    43     8     1    1
    44    17    12   ar
    45    22    15    1
    46    42    44    1
    47    42    45    1
    48    40    41    1
    49     9    10    1
    50    18    23    1
@<TRIPOS>MOLECULE
*****
 45 50 0 0 0
SMALL
GASTEIGER

@<TRIPOS>ATOM
      1 C         140.5628  139.7038  160.8569 C.3     1  UNL1        0.0932
      2 C         141.2554  138.4789  161.3765 C.3     1  UNL1        0.0286
      3 C         142.6861  138.5577  161.8201 C.3     1  UNL1        0.0193
      4 C         143.4242  139.8613  161.7442 C.3     1  UNL1        0.0700
      5 C         142.7316  141.0862  161.2246 C.3     1  UNL1        0.0193
      6 C         141.3008  141.0074  160.7810 C.3     1  UNL1        0.0286
      7 C         142.6412  139.8673  161.4896 C.3     1  UNL1        0.1562
      8 O         141.3475  139.7961  161.0884 O.3     1  UNL1       -0.3572
      9 N         144.8549  139.9401  162.1878 N.3     1  UNL1       -0.2926
     10 H         145.3499  140.4940  161.4889 H       1  UNL1        0.1236
     11 C         145.1941  140.5277  163.5256 C.3     1  UNL1        0.1152
     12 C         144.2772  140.3132  164.6932 C.ar    1  UNL1        0.0765
     13 C         144.0703  138.9320  165.2406 C.ar    1  UNL1        0.0193
     14 C         143.1534  138.7176  166.4082 C.ar    1  UNL1        0.0411
     15 C         142.4434  139.8843  167.0284 C.ar    1  UNL1        0.1708
     16 C         142.6503  141.2654  166.4811 C.ar    1  UNL1        0.1682
     17 N         143.5672  141.4799  165.3134 N.ar    1  UNL1       -0.2304
     18 N         141.9403  142.4321  167.1013 N.am    1  UNL1       -0.2639
     19 C         141.0234  142.2177  168.2689 C.2     1  UNL1        0.2718
     20 O         140.3134  143.3844  168.8892 O.2     1  UNL1       -0.2707
     21 C         140.8165  140.8365  168.8163 C.3     1  UNL1        0.2898
     22 O         141.5265  139.6698  168.1961 O.3     1  UNL1       -0.4628
     23 H         142.0760  143.3386  166.7421 H       1  UNL1        0.1565
     24 C         139.1321  139.6251  160.4133 C.3     1  UNL1        0.0320
     25 C         138.0358  140.0756  161.3327 C.3     1  UNL1        0.0327
     26 C         138.5684  144.2406  162.9509 C.ar    1  UNL1        0.2250
     27 C         138.8507  144.4481  164.4094 C.ar    1  UNL1        0.0593
     28 C         138.9555  143.2673  165.3285 C.ar    1  UNL1        0.0254
     29 C         138.7780  141.8790  164.7891 C.ar    1  UNL1        0.0990
     30 N         138.8828  140.6982  165.7082 N.ar    1  UNL1       -0.2400
     31 C         138.7052  139.3099  165.1689 C.ar    1  UNL1        0.1281
     32 C         138.4229  139.1023  163.7103 C.ar    1  UNL1        0.1566
     33 F         138.2454  137.7140  163.1709 F       1  UNL1       -0.2028
     34 C         138.3181  140.2831  162.7912 C.ar    1  UNL1        0.0261
     35 C         138.4957  141.6715  163.3307 C.ar    1  UNL1        0.1002
     36 N         138.3909  142.8523  162.4116 N.ar    1  UNL1       -0.2104
     37 O         138.4636  145.4214  162.0319 O.3     1  UNL1       -0.4575
     38 C         139.7068  146.0984  161.5358 C.3     1  UNL1        0.2375
     39 C         140.7399  145.3123  160.7841 C.3     1  UNL1        0.1696
     40 O         142.1521  145.2565  161.2866 O.3     1  UNL1       -0.3793
     41 H         142.6866  144.7108  160.6888 H       1  UNL1        0.2106
     42 N         139.1675  143.6729  159.5231 N.3     1  UNL1       -0.3190
     43 C         140.3606  144.5821  159.5299 C.3     1  UNL1        0.0986
     44 H         139.0579  143.2628  158.5956 H       1  UNL1        0.1189
     45 H         138.3315  144.2073  159.7595 H       1  UNL1        0.1189
@<TRIPOS>BOND
     1    42    43    1
     2    43    39    1
     3    39    40    1
     4    39    38    1
     5    38    37    1
     6    37    26    1
     7    26    27   ar
     8    27    28   ar
     9    28    29   ar
    10    29    30   ar
    11    30    31   ar
    12    31    32   ar
    13    32    33    1
    14    32    34   ar
    15    34    25    1
    16    25    24    1
    17    24     1    1
    18     1     2    1
    19     2     3    1
    20     3     4    1
    21     4     9    1
    22     9    11    1
    23    11    12    1
    24    12    13   ar
    25    13    14   ar
    26    14    15   ar
    27    15    16   ar
    28    16    17   ar
    29    16    18    1
    30    18    19   am
    31    19    20    2
    32    19    21    1
    33    21    22    1
    34     4     5    1
    35     5     6    1
    36     4     7    1
    37     7     8    1
    38    34    35   ar
    39    35    36   ar
    40    36    26   ar
    41    35    29   ar
    42     6     1    1
    43     8     1    1
    44    17    12   ar
    45    22    15    1
    46    42    44    1
    47    42    45    1
    48    40    41    1
    49     9    10    1
    50    18    23    1
