@<TRIPOS>MOLECULE
*****
 21 24 0 0 0
SMALL
GASTEIGER

@<TRIPOS>ATOM
      1 C         140.3026  141.6036  166.7282 C.3     1  UNL1        0.0492
      2 C         139.7917  140.3065  167.2818 C.3     1  UNL1        0.0214
      3 C         139.4602  140.7034  165.8738 C.3     1  UNL1        0.1132
      4 C         141.0475  144.9620  163.8272 C.ar    1  UNL1       -0.0000
      5 C         139.7520  144.8948  164.5801 C.ar    1  UNL1       -0.0003
      6 C         139.5037  143.7753  165.5471 C.ar    1  UNL1       -0.0040
      7 C         140.5509  142.7230  165.7612 C.ar    1  UNL1       -0.0185
      8 C         141.8465  142.7903  165.0083 C.ar    1  UNL1       -0.0040
      9 C         142.0948  143.9098  164.0413 C.ar    1  UNL1       -0.0003
     10 C         141.0589  142.1149  167.9184 C.ar    1  UNL1       -0.0185
     11 C         140.4181  143.1048  168.8455 C.ar    1  UNL1       -0.0040
     12 C         141.1744  143.6161  170.0358 C.ar    1  UNL1       -0.0003
     13 C         142.5714  143.1374  170.2988 C.ar    1  UNL1       -0.0000
     14 C         143.2122  142.1475  169.3718 C.ar    1  UNL1       -0.0003
     15 C         142.4559  141.6362  168.1816 C.ar    1  UNL1       -0.0040
     16 C         138.7823  140.4129  164.5675 C.2     1  UNL1        0.2920
     17 N         139.0578  139.2409  163.6729 N.2     1  UNL1       -0.0652
     18 C         138.1558  139.3471  162.4791 C.3     1  UNL1        0.3129
     19 C         137.3229  140.5846  162.6360 C.3     1  UNL1        0.2574
     20 N         137.7101  141.2434  163.9268 N.pl3   1  UNL1       -0.2190
     21 H         137.3277  142.0748  164.2896 H       1  UNL1        0.2920
@<TRIPOS>BOND
     1     4     5   ar
     2     5     6   ar
     3     6     7   ar
     4     7     1    1
     5     1    10    1
     6    10    11   ar
     7    11    12   ar
     8    12    13   ar
     9    13    14   ar
    10    14    15   ar
    11     1     2    1
    12     2     3    1
    13     3    16    1
    14    16    17    2
    15    17    18    1
    16    18    19    1
    17    19    20    1
    18     7     8   ar
    19     8     9   ar
    20     9     4   ar
    21     3     1    1
    22    20    16    1
    23    15    10   ar
    24    20    21    1
@<TRIPOS>MOLECULE
*****
 21 24 0 0 0
SMALL
GASTEIGER

@<TRIPOS>ATOM
      1 C         139.3102  139.7659  166.3330 C.3     1  UNL1        0.0492
      2 C         138.2235  139.0885  167.1140 C.3     1  UNL1        0.0214
      3 C         139.2655  139.8988  167.8264 C.3     1  UNL1        0.1132
      4 C         142.9646  142.2344  165.4377 C.ar    1  UNL1       -0.0000
      5 C         141.6183  142.8904  165.5209 C.ar    1  UNL1       -0.0003
      6 C         140.4002  142.0676  165.8193 C.ar    1  UNL1       -0.0040
      7 C         140.5283  140.5887  166.0346 C.ar    1  UNL1       -0.0185
      8 C         141.8747  139.9327  165.9514 C.ar    1  UNL1       -0.0040
      9 C         143.0928  140.7555  165.6530 C.ar    1  UNL1       -0.0003
     10 C         138.9318  139.3471  164.9432 C.ar    1  UNL1       -0.0185
     11 C         138.2251  140.3101  164.0360 C.ar    1  UNL1       -0.0040
     12 C         137.8467  139.8913  162.6461 C.ar    1  UNL1       -0.0003
     13 C         138.1751  138.5095  162.1637 C.ar    1  UNL1       -0.0000
     14 C         138.8818  137.5465  163.0709 C.ar    1  UNL1       -0.0003
     15 C         139.2602  137.9653  164.4607 C.ar    1  UNL1       -0.0040
     16 C         139.8413  140.4435  169.0999 C.2     1  UNL1        0.2920
     17 N         139.9839  141.8943  169.4534 N.2     1  UNL1       -0.0652
     18 C         140.6064  141.9805  170.8154 C.3     1  UNL1        0.3129
     19 C         140.8485  140.5830  171.3037 C.3     1  UNL1        0.2574
     20 N         140.3757  139.6331  170.2435 N.pl3   1  UNL1       -0.2190
     21 H         140.4100  138.6503  170.2900 H       1  UNL1        0.2920
@<TRIPOS>BOND
     1     4     5   ar
     2     5     6   ar
     3     6     7   ar
     4     7     1    1
     5     1    10    1
     6    10    11   ar
     7    11    12   ar
     8    12    13   ar
     9    13    14   ar
    10    14    15   ar
    11     1     2    1
    12     2     3    1
    13     3    16    1
    14    16    17    2
    15    17    18    1
    16    18    19    1
    17    19    20    1
    18     7     8   ar
    19     8     9   ar
    20     9     4   ar
    21     3     1    1
    22    20    16    1
    23    15    10   ar
    24    20    21    1
@<TRIPOS>MOLECULE
*****
 21 24 0 0 0
SMALL
GASTEIGER

@<TRIPOS>ATOM
      1 C         141.2839  142.4029  166.5620 C.3     1  UNL1        0.0492
      2 C         142.7091  142.1539  166.9580 C.3     1  UNL1        0.0214
      3 C         142.3918  142.6779  165.5888 C.3     1  UNL1        0.1132
      4 C         137.7346  143.5782  164.0578 C.ar    1  UNL1       -0.0000
      5 C         138.4153  144.5995  164.9200 C.ar    1  UNL1       -0.0003
      6 C         139.5985  144.2077  165.7547 C.ar    1  UNL1       -0.0040
      7 C         140.1008  142.7947  165.7272 C.ar    1  UNL1       -0.0185
      8 C         139.4201  141.7733  164.8651 C.ar    1  UNL1       -0.0040
      9 C         138.2369  142.1651  164.0303 C.ar    1  UNL1       -0.0003
     10 C         140.5870  141.9919  167.8250 C.ar    1  UNL1       -0.0185
     11 C         140.5116  142.9420  168.9833 C.ar    1  UNL1       -0.0040
     12 C         139.8146  142.5309  170.2464 C.ar    1  UNL1       -0.0003
     13 C         139.1931  141.1697  170.3511 C.ar    1  UNL1       -0.0000
     14 C         139.2686  140.2197  169.1928 C.ar    1  UNL1       -0.0003
     15 C         139.9655  140.6307  167.9298 C.ar    1  UNL1       -0.0040
     16 C         142.8482  143.1392  164.2364 C.2     1  UNL1        0.2920
     17 N         144.0373  144.0097  163.9567 N.2     1  UNL1       -0.0652
     18 C         144.1196  144.2195  162.4738 C.3     1  UNL1        0.3129
     19 C         142.9815  143.4786  161.8369 C.3     1  UNL1        0.2574
     20 N         142.1957  142.8109  162.9263 N.pl3   1  UNL1       -0.2190
     21 H         141.3926  142.2548  162.8030 H       1  UNL1        0.2920
@<TRIPOS>BOND
     1     4     5   ar
     2     5     6   ar
     3     6     7   ar
     4     7     1    1
     5     1    10    1
     6    10    11   ar
     7    11    12   ar
     8    12    13   ar
     9    13    14   ar
    10    14    15   ar
    11     1     2    1
    12     2     3    1
    13     3    16    1
    14    16    17    2
    15    17    18    1
    16    18    19    1
    17    19    20    1
    18     7     8   ar
    19     8     9   ar
    20     9     4   ar
    21     3     1    1
    22    20    16    1
    23    15    10   ar
    24    20    21    1
@<TRIPOS>MOLECULE
*****
 21 24 0 0 0
SMALL
GASTEIGER

@<TRIPOS>ATOM
      1 C         141.7182  142.3584  166.4430 C.3     1  UNL1        0.0492
      2 C         140.3756  142.8821  166.8591 C.3     1  UNL1        0.0214
      3 C         140.8977  143.1668  165.4821 C.3     1  UNL1        0.1132
      4 C         145.3265  141.5297  163.8850 C.ar    1  UNL1       -0.0000
      5 C         144.2673  140.4805  164.0503 C.ar    1  UNL1       -0.0003
      6 C         143.0645  140.7568  164.9029 C.ar    1  UNL1       -0.0040
      7 C         142.9209  142.0822  165.5903 C.ar    1  UNL1       -0.0185
      8 C         143.9801  143.1314  165.4251 C.ar    1  UNL1       -0.0040
      9 C         145.1829  142.8551  164.5724 C.ar    1  UNL1       -0.0003
     10 C         142.1209  141.6460  167.7001 C.ar    1  UNL1       -0.0185
     11 C         141.5957  140.2698  167.9833 C.ar    1  UNL1       -0.0040
     12 C         141.9984  139.5574  169.2405 C.ar    1  UNL1       -0.0003
     13 C         142.9263  140.2213  170.2143 C.ar    1  UNL1       -0.0000
     14 C         143.4514  141.5974  169.9311 C.ar    1  UNL1       -0.0003
     15 C         143.0487  142.3099  168.6740 C.ar    1  UNL1       -0.0040
     16 C         140.7256  143.7979  164.1322 C.2     1  UNL1        0.2920
     17 N         140.6883  143.0741  162.8189 N.2     1  UNL1       -0.0652
     18 C         140.5002  144.0924  161.7337 C.3     1  UNL1        0.3129
     19 C         140.4212  145.4455  162.3762 C.3     1  UNL1        0.2574
     20 N         140.5605  145.2635  163.8586 N.pl3   1  UNL1       -0.2190
     21 H         140.5461  145.9801  164.5335 H       1  UNL1        0.2920
@<TRIPOS>BOND
     1     4     5   ar
     2     5     6   ar
     3     6     7   ar
     4     7     1    1
     5     1    10    1
     6    10    11   ar
     7    11    12   ar
     8    12    13   ar
     9    13    14   ar
    10    14    15   ar
    11     1     2    1
    12     2     3    1
    13     3    16    1
    14    16    17    2
    15    17    18    1
    16    18    19    1
    17    19    20    1
    18     7     8   ar
    19     8     9   ar
    20     9     4   ar
    21     3     1    1
    22    20    16    1
    23    15    10   ar
    24    20    21    1
@<TRIPOS>MOLECULE
*****
 21 24 0 0 0
SMALL
GASTEIGER

@<TRIPOS>ATOM
      1 C         140.0838  141.1542  166.9190 C.3     1  UNL1        0.0492
      2 C         140.4124  142.6172  166.8827 C.3     1  UNL1        0.0214
      3 C         139.5855  142.0069  165.7901 C.3     1  UNL1        0.1132
      4 C         138.3724  137.1731  165.7056 C.ar    1  UNL1       -0.0000
      5 C         137.7149  137.9727  166.7911 C.ar    1  UNL1       -0.0003
      6 C         138.2854  139.2997  167.1956 C.ar    1  UNL1       -0.0040
      7 C         139.5134  139.8271  166.5146 C.ar    1  UNL1       -0.0185
      8 C         140.1709  139.0276  165.4291 C.ar    1  UNL1       -0.0040
      9 C         139.6004  137.7006  165.0246 C.ar    1  UNL1       -0.0003
     10 C         140.7802  140.7623  168.1885 C.ar    1  UNL1       -0.0185
     11 C         140.3191  141.3235  169.5008 C.ar    1  UNL1       -0.0040
     12 C         141.0156  140.9316  170.7703 C.ar    1  UNL1       -0.0003
     13 C         142.1731  139.9786  170.7273 C.ar    1  UNL1       -0.0000
     14 C         142.6342  139.4174  169.4149 C.ar    1  UNL1       -0.0003
     15 C         141.9378  139.8093  168.1454 C.ar    1  UNL1       -0.0040
     16 C         138.8204  142.1468  164.5074 C.2     1  UNL1        0.2920
     17 N         139.0774  143.1623  163.4338 N.2     1  UNL1       -0.0652
     18 C         138.0798  142.9389  162.3362 C.3     1  UNL1        0.3129
     19 C         137.2063  141.7854  162.7314 C.3     1  UNL1        0.2574
     20 N         137.6640  141.2958  164.0733 N.pl3   1  UNL1       -0.2190
     21 H         137.2739  140.5473  164.5802 H       1  UNL1        0.2920
@<TRIPOS>BOND
     1     4     5   ar
     2     5     6   ar
     3     6     7   ar
     4     7     1    1
     5     1    10    1
     6    10    11   ar
     7    11    12   ar
     8    12    13   ar
     9    13    14   ar
    10    14    15   ar
    11     1     2    1
    12     2     3    1
    13     3    16    1
    14    16    17    2
    15    17    18    1
    16    18    19    1
    17    19    20    1
    18     7     8   ar
    19     8     9   ar
    20     9     4   ar
    21     3     1    1
    22    20    16    1
    23    15    10   ar
    24    20    21    1
@<TRIPOS>MOLECULE
*****
 21 24 0 0 0
SMALL
GASTEIGER

@<TRIPOS>ATOM
      1 C         140.2010  139.8606  167.1983 C.3     1  UNL1        0.0492
      2 C         138.7846  139.5565  167.5870 C.3     1  UNL1        0.0214
      3 C         139.2210  139.3996  166.1605 C.3     1  UNL1        0.1132
      4 C         143.8722  140.3518  164.6427 C.ar    1  UNL1       -0.0000
      5 C         143.0799  141.5563  165.0567 C.ar    1  UNL1       -0.0003
      6 C         141.8562  141.3925  165.9086 C.ar    1  UNL1       -0.0040
      7 C         141.4248  140.0243  166.3465 C.ar    1  UNL1       -0.0185
      8 C         142.2171  138.8198  165.9325 C.ar    1  UNL1       -0.0040
      9 C         143.4408  138.9836  165.0806 C.ar    1  UNL1       -0.0003
     10 C         140.7560  140.2647  168.5320 C.ar    1  UNL1       -0.0185
     11 C         141.9724  139.5772  169.0776 C.ar    1  UNL1       -0.0040
     12 C         142.5274  139.9813  170.4114 C.ar    1  UNL1       -0.0003
     13 C         141.8660  141.0729  171.1993 C.ar    1  UNL1       -0.0000
     14 C         140.6496  141.7604  170.6537 C.ar    1  UNL1       -0.0003
     15 C         140.0946  141.3563  169.3200 C.ar    1  UNL1       -0.0040
     16 C         138.9072  139.0429  164.7377 C.2     1  UNL1        0.2920
     17 N         138.2626  139.9422  163.7250 N.2     1  UNL1       -0.0652
     18 C         138.1399  139.1794  162.4392 C.3     1  UNL1        0.3129
     19 C         138.7086  137.8088  162.6574 C.3     1  UNL1        0.2574
     20 N         139.1829  137.7243  164.0779 N.pl3   1  UNL1       -0.2190
     21 H         139.6015  136.9410  164.5027 H       1  UNL1        0.2920
@<TRIPOS>BOND
     1     4     5   ar
     2     5     6   ar
     3     6     7   ar
     4     7     1    1
     5     1    10    1
     6    10    11   ar
     7    11    12   ar
     8    12    13   ar
     9    13    14   ar
    10    14    15   ar
    11     1     2    1
    12     2     3    1
    13     3    16    1
    14    16    17    2
    15    17    18    1
    16    18    19    1
    17    19    20    1
    18     7     8   ar
    19     8     9   ar
    20     9     4   ar
    21     3     1    1
    22    20    16    1
    23    15    10   ar
    24    20    21    1
@<TRIPOS>MOLECULE
*****
 21 24 0 0 0
SMALL
GASTEIGER

@<TRIPOS>ATOM
      1 C         140.2835  139.8612  167.1868 C.3     1  UNL1        0.0492
      2 C         138.8616  139.5750  167.5693 C.3     1  UNL1        0.0214
      3 C         139.3053  139.4005  166.1472 C.3     1  UNL1        0.1132
      4 C         143.9752  140.2919  164.6500 C.ar    1  UNL1       -0.0000
      5 C         143.5366  138.9338  165.1115 C.ar    1  UNL1       -0.0003
      6 C         142.3060  138.7902  165.9571 C.ar    1  UNL1       -0.0040
      7 C         141.5140  140.0048  166.3412 C.ar    1  UNL1       -0.0185
      8 C         141.9527  141.3629  165.8797 C.ar    1  UNL1       -0.0040
      9 C         143.1832  141.5065  165.0341 C.ar    1  UNL1       -0.0003
     10 C         140.8342  140.2720  168.5202 C.ar    1  UNL1       -0.0185
     11 C         140.1797  141.3781  169.2935 C.ar    1  UNL1       -0.0040
     12 C         140.7305  141.7889  170.6269 C.ar    1  UNL1       -0.0003
     13 C         141.9358  141.0936  171.1869 C.ar    1  UNL1       -0.0000
     14 C         142.5904  139.9875  170.4136 C.ar    1  UNL1       -0.0003
     15 C         142.0396  139.5766  169.0802 C.ar    1  UNL1       -0.0040
     16 C         138.9967  139.0338  164.7257 C.2     1  UNL1        0.2920
     17 N         139.3551  137.7433  164.0505 N.2     1  UNL1       -0.0652
     18 C         138.8555  137.8051  162.6375 C.3     1  UNL1        0.3129
     19 C         138.1884  139.1339  162.4394 C.3     1  UNL1        0.2574
     20 N         138.2757  139.8934  163.7300 N.pl3   1  UNL1       -0.2190
     21 H         137.9218  140.7972  163.8947 H       1  UNL1        0.2920
@<TRIPOS>BOND
     1     4     5   ar
     2     5     6   ar
     3     6     7   ar
     4     7     1    1
     5     1    10    1
     6    10    11   ar
     7    11    12   ar
     8    12    13   ar
     9    13    14   ar
    10    14    15   ar
    11     1     2    1
    12     2     3    1
    13     3    16    1
    14    16    17    2
    15    17    18    1
    16    18    19    1
    17    19    20    1
    18     7     8   ar
    19     8     9   ar
    20     9     4   ar
    21     3     1    1
    22    20    16    1
    23    15    10   ar
    24    20    21    1
@<TRIPOS>MOLECULE
*****
 21 24 0 0 0
SMALL
GASTEIGER

@<TRIPOS>ATOM
      1 C         142.0055  142.6056  165.7083 C.3     1  UNL1        0.0492
      2 C         143.2082  142.3140  166.5558 C.3     1  UNL1        0.0214
      3 C         141.8368  142.2774  167.1622 C.3     1  UNL1        0.1132
      4 C         137.7023  143.2113  164.5395 C.ar    1  UNL1       -0.0000
      5 C         138.5766  144.3968  164.8226 C.ar    1  UNL1       -0.0003
      6 C         140.0110  144.1949  165.2122 C.ar    1  UNL1       -0.0040
      7 C         140.5711  142.8075  165.3187 C.ar    1  UNL1       -0.0185
      8 C         139.6968  141.6220  165.0356 C.ar    1  UNL1       -0.0040
      9 C         138.2624  141.8239  164.6460 C.ar    1  UNL1       -0.0003
     10 C         142.6723  142.8636  164.3897 C.ar    1  UNL1       -0.0185
     11 C         142.6050  141.8340  163.3010 C.ar    1  UNL1       -0.0040
     12 C         143.2719  142.0921  161.9823 C.ar    1  UNL1       -0.0003
     13 C         144.0061  143.3798  161.7526 C.ar    1  UNL1       -0.0000
     14 C         144.0734  144.4094  162.8413 C.ar    1  UNL1       -0.0003
     15 C         143.4066  144.1513  164.1599 C.ar    1  UNL1       -0.0040
     16 C         140.9475  142.0668  168.3517 C.2     1  UNL1        0.2920
     17 N         140.6373  143.0821  169.4113 N.2     1  UNL1       -0.0652
     18 C         139.7104  142.4467  170.4049 C.3     1  UNL1        0.3129
     19 C         139.4478  141.0388  169.9593 C.3     1  UNL1        0.2574
     20 N         140.2123  140.8039  168.6903 N.pl3   1  UNL1       -0.2190
     21 H         140.2288  139.9677  168.1709 H       1  UNL1        0.2920
@<TRIPOS>BOND
     1     4     5   ar
     2     5     6   ar
     3     6     7   ar
     4     7     1    1
     5     1    10    1
     6    10    11   ar
     7    11    12   ar
     8    12    13   ar
     9    13    14   ar
    10    14    15   ar
    11     1     2    1
    12     2     3    1
    13     3    16    1
    14    16    17    2
    15    17    18    1
    16    18    19    1
    17    19    20    1
    18     7     8   ar
    19     8     9   ar
    20     9     4   ar
    21     3     1    1
    22    20    16    1
    23    15    10   ar
    24    20    21    1
@<TRIPOS>MOLECULE
*****
 21 24 0 0 0
SMALL
GASTEIGER

@<TRIPOS>ATOM
      1 C         142.6031  139.3639  165.9531 C.3     1  UNL1        0.0492
      2 C         143.5007  138.3598  166.6134 C.3     1  UNL1        0.0214
      3 C         142.6724  139.2896  167.4497 C.3     1  UNL1        0.1132
      4 C         139.6230  142.7014  165.4736 C.ar    1  UNL1       -0.0000
      5 C         139.1504  141.2803  165.5584 C.ar    1  UNL1       -0.0003
      6 C         140.1437  140.1678  165.7182 C.ar    1  UNL1       -0.0040
      7 C         141.6097  140.4764  165.7933 C.ar    1  UNL1       -0.0185
      8 C         142.0823  141.8974  165.7085 C.ar    1  UNL1       -0.0040
      9 C         141.0889  143.0099  165.5486 C.ar    1  UNL1       -0.0003
     10 C         142.8787  139.0517  164.5121 C.ar    1  UNL1       -0.0185
     11 C         144.0358  139.7008  163.8122 C.ar    1  UNL1       -0.0040
     12 C         144.3115  139.3886  162.3711 C.ar    1  UNL1       -0.0003
     13 C         143.4300  138.4274  161.6301 C.ar    1  UNL1       -0.0000
     14 C         142.2730  137.7784  162.3300 C.ar    1  UNL1       -0.0003
     15 C         141.9973  138.0905  163.7710 C.ar    1  UNL1       -0.0040
     16 C         142.2342  139.7836  168.7966 C.2     1  UNL1        0.2920
     17 N         143.1321  140.3022  169.8804 N.2     1  UNL1       -0.0652
     18 C         142.2740  140.6848  171.0497 C.3     1  UNL1        0.3129
     19 C         140.8458  140.4028  170.6885 C.3     1  UNL1        0.2574
     20 N         140.8211  139.8458  169.2959 N.pl3   1  UNL1       -0.2190
     21 H         140.0184  139.5696  168.7973 H       1  UNL1        0.2920
@<TRIPOS>BOND
     1     4     5   ar
     2     5     6   ar
     3     6     7   ar
     4     7     1    1
     5     1    10    1
     6    10    11   ar
     7    11    12   ar
     8    12    13   ar
     9    13    14   ar
    10    14    15   ar
    11     1     2    1
    12     2     3    1
    13     3    16    1
    14    16    17    2
    15    17    18    1
    16    18    19    1
    17    19    20    1
    18     7     8   ar
    19     8     9   ar
    20     9     4   ar
    21     3     1    1
    22    20    16    1
    23    15    10   ar
    24    20    21    1
