@<TRIPOS>MOLECULE
*****
 39 44 0 0 0
SMALL
GASTEIGER

@<TRIPOS>ATOM
      1 C         137.8989  142.9892  162.9985 C.3     1  UNL1        0.0932
      2 C         137.6728  141.8510  163.9490 C.3     1  UNL1        0.0286
      3 C         137.6523  140.4406  163.4388 C.3     1  UNL1        0.0193
      4 C         137.8579  140.1683  161.9780 C.3     1  UNL1        0.0700
      5 C         138.0840  141.3065  161.0276 C.3     1  UNL1        0.0193
      6 C         138.1045  142.7170  161.5379 C.3     1  UNL1        0.0286
      7 C         137.8775  140.9579  162.2108 C.3     1  UNL1        0.1562
      8 O         137.8961  142.2332  162.6721 O.3     1  UNL1       -0.3572
      9 N         137.8374  138.7580  161.4678 N.3     1  UNL1       -0.2926
     10 H         137.2723  138.7602  160.6186 H       1  UNL1        0.1236
     11 C         139.1235  138.0637  161.1303 C.3     1  UNL1        0.1152
     12 C         140.3262  138.2444  162.0083 C.ar    1  UNL1        0.0765
     13 C         140.4817  137.4138  163.2476 C.ar    1  UNL1        0.0193
     14 C         141.6844  137.5946  164.1256 C.ar    1  UNL1        0.0411
     15 C         142.7316  138.6059  163.7642 C.ar    1  UNL1        0.1708
     16 C         142.5761  139.4365  162.5249 C.ar    1  UNL1        0.1682
     17 N         141.3733  139.2558  161.6469 N.ar    1  UNL1       -0.2304
     18 N         143.6233  140.4478  162.1636 N.am    1  UNL1       -0.2639
     19 C         144.8260  140.6286  163.0415 C.2     1  UNL1        0.2718
     20 O         145.8732  141.6399  162.6802 O.2     1  UNL1       -0.2707
     21 C         144.9815  139.7980  164.2809 C.3     1  UNL1        0.2898
     22 O         143.9343  138.7866  164.6423 O.3     1  UNL1       -0.4628
     23 H         143.5212  140.9930  161.3502 H       1  UNL1        0.1565
     24 C         137.9194  144.3995  163.5087 C.3     1  UNL1        0.0320
     25 C         138.8856  144.7933  164.5865 C.3     1  UNL1        0.0335
     26 C         140.6065  141.5368  167.1718 C.ar    1  UNL1        0.2250
     27 C         142.0558  141.1700  167.0504 C.ar    1  UNL1        0.0593
     28 C         142.9316  141.8886  166.0672 C.ar    1  UNL1        0.0254
     29 C         142.3580  142.9740  165.2055 C.ar    1  UNL1        0.0990
     30 N         143.2337  143.6927  164.2223 N.ar    1  UNL1       -0.2392
     31 C         142.6601  144.7781  163.3605 C.ar    1  UNL1        0.1351
     32 C         141.2107  145.1450  163.4819 C.ar    1  UNL1        0.1502
     33 O         140.6371  146.2305  162.6201 O.3     1  UNL1       -0.5042
     34 C         140.3350  144.4264  164.4651 C.ar    1  UNL1        0.0323
     35 C         140.9086  143.3409  165.3269 C.ar    1  UNL1        0.1009
     36 N         140.0329  142.6223  166.3101 N.ar    1  UNL1       -0.2104
     37 H         141.1842  146.6794  162.0060 H       1  UNL1        0.2922
     38 C         139.8800  141.0809  169.6243 C.3     1  UNL1        0.2542
     39 O         139.7308  140.8182  168.1550 O.3     1  UNL1       -0.4561
@<TRIPOS>BOND
     1    38    39    1
     2    39    26    1
     3    26    27   ar
     4    27    28   ar
     5    28    29   ar
     6    29    30   ar
     7    30    31   ar
     8    31    32   ar
     9    32    33    1
    10    32    34   ar
    11    34    25    1
    12    25    24    1
    13    24     1    1
    14     1     2    1
    15     2     3    1
    16     3     4    1
    17     4     9    1
    18     9    11    1
    19    11    12    1
    20    12    13   ar
    21    13    14   ar
    22    14    15   ar
    23    15    16   ar
    24    16    17   ar
    25    16    18    1
    26    18    19   am
    27    19    20    2
    28    19    21    1
    29    21    22    1
    30     4     5    1
    31     5     6    1
    32     4     7    1
    33     7     8    1
    34    34    35   ar
    35    35    36   ar
    36    36    26   ar
    37    35    29   ar
    38     6     1    1
    39     8     1    1
    40    17    12   ar
    41    22    15    1
    42    33    37    1
    43     9    10    1
    44    18    23    1
@<TRIPOS>MOLECULE
*****
 39 44 0 0 0
SMALL
GASTEIGER

@<TRIPOS>ATOM
      1 C         142.0873  137.9978  164.0221 C.3     1  UNL1        0.0932
      2 C         142.9903  138.5197  165.1002 C.3     1  UNL1        0.0286
      3 C         144.1528  139.3983  164.7448 C.3     1  UNL1        0.0193
      4 C         144.4125  139.7552  163.3111 C.3     1  UNL1        0.0700
      5 C         143.5095  139.2334  162.2330 C.3     1  UNL1        0.0193
      6 C         142.3469  138.3547  162.5885 C.3     1  UNL1        0.0286
      7 C         143.7630  139.2706  163.4571 C.3     1  UNL1        0.1562
      8 O         142.7118  138.4761  163.7785 O.3     1  UNL1       -0.3572
      9 N         145.5750  140.6339  162.9556 N.3     1  UNL1       -0.2926
     10 H         145.6384  140.6408  161.9376 H       1  UNL1        0.1236
     11 C         145.5962  142.0662  163.4006 C.3     1  UNL1        0.1152
     12 C         144.3765  142.9225  163.2305 C.ar    1  UNL1        0.0765
     13 C         143.6712  143.4710  164.4355 C.ar    1  UNL1        0.0193
     14 C         142.4515  144.3273  164.2654 C.ar    1  UNL1        0.0411
     15 C         141.9370  144.6352  162.8904 C.ar    1  UNL1        0.1708
     16 C         142.6422  144.0868  161.6856 C.ar    1  UNL1        0.1682
     17 N         143.8620  143.2304  161.8556 N.ar    1  UNL1       -0.2304
     18 N         142.1277  144.3946  160.3106 N.am    1  UNL1       -0.2639
     19 C         140.9080  145.2510  160.1405 C.2     1  UNL1        0.2718
     20 O         140.3935  145.5588  158.7656 O.2     1  UNL1       -0.2707
     21 C         140.2027  145.7995  161.3455 C.3     1  UNL1        0.2898
     22 O         140.7172  145.4916  162.7204 O.3     1  UNL1       -0.4628
     23 H         142.5906  144.0347  159.5198 H       1  UNL1        0.1565
     24 C         140.9248  137.1192  164.3775 C.3     1  UNL1        0.0320
     25 C         139.6272  137.7322  164.8142 C.3     1  UNL1        0.0335
     26 C         140.2201  141.7971  166.6515 C.ar    1  UNL1        0.2250
     27 C         139.6959  143.0182  165.9558 C.ar    1  UNL1        0.0593
     28 C         138.9740  142.8844  164.6477 C.ar    1  UNL1        0.0254
     29 C         138.7764  141.5295  164.0353 C.ar    1  UNL1        0.0990
     30 N         138.0546  141.3957  162.7272 N.ar    1  UNL1       -0.2392
     31 C         137.8570  140.0408  162.1148 C.ar    1  UNL1        0.1351
     32 C         138.3812  138.8196  162.8105 C.ar    1  UNL1        0.1502
     33 O         138.1836  137.4647  162.1981 O.3     1  UNL1       -0.5042
     34 C         139.1030  138.9534  164.1186 C.ar    1  UNL1        0.0323
     35 C         139.3006  140.3084  164.7310 C.ar    1  UNL1        0.1009
     36 N         140.0225  140.4422  166.0390 N.ar    1  UNL1       -0.2104
     37 H         137.7327  137.3811  161.3810 H       1  UNL1        0.2922
     38 C         140.5348  142.9947  168.9354 C.3     1  UNL1        0.2542
     39 O         140.9419  141.9308  167.9595 O.3     1  UNL1       -0.4561
@<TRIPOS>BOND
     1    38    39    1
     2    39    26    1
     3    26    27   ar
     4    27    28   ar
     5    28    29   ar
     6    29    30   ar
     7    30    31   ar
     8    31    32   ar
     9    32    33    1
    10    32    34   ar
    11    34    25    1
    12    25    24    1
    13    24     1    1
    14     1     2    1
    15     2     3    1
    16     3     4    1
    17     4     9    1
    18     9    11    1
    19    11    12    1
    20    12    13   ar
    21    13    14   ar
    22    14    15   ar
    23    15    16   ar
    24    16    17   ar
    25    16    18    1
    26    18    19   am
    27    19    20    2
    28    19    21    1
    29    21    22    1
    30     4     5    1
    31     5     6    1
    32     4     7    1
    33     7     8    1
    34    34    35   ar
    35    35    36   ar
    36    36    26   ar
    37    35    29   ar
    38     6     1    1
    39     8     1    1
    40    17    12   ar
    41    22    15    1
    42    33    37    1
    43     9    10    1
    44    18    23    1
@<TRIPOS>MOLECULE
*****
 39 44 0 0 0
SMALL
GASTEIGER

@<TRIPOS>ATOM
      1 C         144.6088  140.0295  163.5431 C.3     1  UNL1        0.0932
      2 C         143.8881  139.2621  164.6116 C.3     1  UNL1        0.0286
      3 C         142.7756  138.3263  164.2420 C.3     1  UNL1        0.0193
      4 C         142.3838  138.1579  162.8039 C.3     1  UNL1        0.0700
      5 C         143.1045  138.9253  161.7354 C.3     1  UNL1        0.0193
      6 C         144.2170  139.8611  162.1051 C.3     1  UNL1        0.0286
      7 C         142.9997  138.6822  162.9577 C.3     1  UNL1        0.1562
      8 O         144.0056  139.5284  163.2919 O.3     1  UNL1       -0.3572
      9 N         141.2713  137.2221  162.4343 N.3     1  UNL1       -0.2926
     10 H         141.0856  136.6465  163.2556 H       1  UNL1        0.1236
     11 C         139.9502  137.7693  161.9814 C.3     1  UNL1        0.1152
     12 C         139.3641  138.9718  162.6600 C.ar    1  UNL1        0.0765
     13 C         138.6966  138.8282  163.9956 C.ar    1  UNL1        0.0193
     14 C         138.1105  140.0307  164.6742 C.ar    1  UNL1        0.0411
     15 C         138.1919  141.3767  164.0173 C.ar    1  UNL1        0.1708
     16 C         138.8594  141.5203  162.6817 C.ar    1  UNL1        0.1682
     17 N         139.4455  140.3178  162.0030 N.ar    1  UNL1       -0.2304
     18 N         138.9408  142.8663  162.0248 N.am    1  UNL1       -0.2639
     19 C         138.3547  144.0688  162.7034 C.2     1  UNL1        0.2718
     20 O         138.4362  145.4148  162.0464 O.2     1  UNL1       -0.2707
     21 C         137.6872  143.9252  164.0390 C.3     1  UNL1        0.2898
     22 O         137.6058  142.5792  164.6960 O.3     1  UNL1       -0.4628
     23 H         139.3789  142.9605  161.1482 H       1  UNL1        0.1565
     24 C         145.7213  140.9653  163.9127 C.3     1  UNL1        0.0320
     25 C         145.4062  142.3337  164.4404 C.3     1  UNL1        0.0335
     26 C         142.2573  141.8479  167.6182 C.ar    1  UNL1        0.2250
     27 C         140.8912  142.4335  167.4161 C.ar    1  UNL1        0.0593
     28 C         140.5747  143.1810  166.1547 C.ar    1  UNL1        0.0254
     29 C         141.6243  143.3429  165.0954 C.ar    1  UNL1        0.0990
     30 N         141.3079  144.0904  163.8340 N.ar    1  UNL1       -0.2392
     31 C         142.3575  144.2523  162.7748 C.ar    1  UNL1        0.1351
     32 C         143.7236  143.6667  162.9769 C.ar    1  UNL1        0.1502
     33 O         144.7732  143.8286  161.9176 O.3     1  UNL1       -0.5042
     34 C         144.0401  142.9192  164.2383 C.ar    1  UNL1        0.0323
     35 C         142.9904  142.7573  165.2976 C.ar    1  UNL1        0.1009
     36 N         143.3069  142.0098  166.5590 N.ar    1  UNL1       -0.2104
     37 H         144.5755  144.2956  161.1297 H       1  UNL1        0.2922
     38 C         142.0703  139.7001  169.0680 C.3     1  UNL1        0.2542
     39 O         142.5738  141.1004  168.8796 O.3     1  UNL1       -0.4561
@<TRIPOS>BOND
     1    38    39    1
     2    39    26    1
     3    26    27   ar
     4    27    28   ar
     5    28    29   ar
     6    29    30   ar
     7    30    31   ar
     8    31    32   ar
     9    32    33    1
    10    32    34   ar
    11    34    25    1
    12    25    24    1
    13    24     1    1
    14     1     2    1
    15     2     3    1
    16     3     4    1
    17     4     9    1
    18     9    11    1
    19    11    12    1
    20    12    13   ar
    21    13    14   ar
    22    14    15   ar
    23    15    16   ar
    24    16    17   ar
    25    16    18    1
    26    18    19   am
    27    19    20    2
    28    19    21    1
    29    21    22    1
    30     4     5    1
    31     5     6    1
    32     4     7    1
    33     7     8    1
    34    34    35   ar
    35    35    36   ar
    36    36    26   ar
    37    35    29   ar
    38     6     1    1
    39     8     1    1
    40    17    12   ar
    41    22    15    1
    42    33    37    1
    43     9    10    1
    44    18    23    1
@<TRIPOS>MOLECULE
*****
 39 44 0 0 0
SMALL
GASTEIGER

@<TRIPOS>ATOM
      1 C         141.1121  144.8420  162.8965 C.3     1  UNL1        0.0932
      2 C         142.2096  144.9332  163.9149 C.3     1  UNL1        0.0286
      3 C         143.5594  144.3508  163.6171 C.3     1  UNL1        0.0193
      4 C         143.8119  143.6772  162.3008 C.3     1  UNL1        0.0700
      5 C         142.7144  143.5860  161.2824 C.3     1  UNL1        0.0193
      6 C         141.3645  144.1684  161.5802 C.3     1  UNL1        0.0286
      7 C         143.0559  143.9814  162.4187 C.3     1  UNL1        0.1562
      8 O         141.8353  144.5080  162.6879 O.3     1  UNL1       -0.3572
      9 N         145.1617  143.0948  162.0030 N.3     1  UNL1       -0.2926
     10 H         145.8466  143.8259  162.1946 H       1  UNL1        0.1236
     11 C         145.6251  141.8663  162.7284 C.3     1  UNL1        0.1152
     12 C         144.6360  140.8096  163.1216 C.ar    1  UNL1        0.0765
     13 C         144.7772  140.1023  164.4369 C.ar    1  UNL1        0.0193
     14 C         143.7880  139.0455  164.8302 C.ar    1  UNL1        0.0411
     15 C         142.6576  138.6960  163.9083 C.ar    1  UNL1        0.1708
     16 C         142.5163  139.4032  162.5931 C.ar    1  UNL1        0.1682
     17 N         143.5055  140.4600  162.1997 N.ar    1  UNL1       -0.2304
     18 N         141.3859  139.0536  161.6711 N.am    1  UNL1       -0.2639
     19 C         140.3967  137.9968  162.0644 C.2     1  UNL1        0.2718
     20 O         139.2663  137.6473  161.1425 O.2     1  UNL1       -0.2707
     21 C         140.5379  137.2896  163.3797 C.3     1  UNL1        0.2898
     22 O         141.6684  137.6391  164.3016 O.3     1  UNL1       -0.4628
     23 H         141.2932  139.5178  160.8079 H       1  UNL1        0.1565
     24 C         139.7623  145.4244  163.1943 C.3     1  UNL1        0.0320
     25 C         138.8331  144.7200  164.1380 C.3     1  UNL1        0.0335
     26 C         140.5700  142.1331  167.3848 C.ar    1  UNL1        0.2250
     27 C         140.4201  140.6422  167.3165 C.ar    1  UNL1        0.0593
     28 C         139.6913  140.0136  166.1660 C.ar    1  UNL1        0.0254
     29 C         139.1124  140.8758  165.0838 C.ar    1  UNL1        0.0990
     30 N         138.3836  140.2472  163.9332 N.ar    1  UNL1       -0.2392
     31 C         137.8047  141.1094  162.8510 C.ar    1  UNL1        0.1351
     32 C         137.9545  142.6004  162.9192 C.ar    1  UNL1        0.1502
     33 O         137.3756  143.4627  161.8370 O.3     1  UNL1       -0.5042
     34 C         138.6833  143.2291  164.0697 C.ar    1  UNL1        0.0323
     35 C         139.2622  142.3667  165.1520 C.ar    1  UNL1        0.1009
     36 N         139.9910  142.9954  166.3025 N.ar    1  UNL1       -0.2104
     37 H         136.9203  143.0700  161.1183 H       1  UNL1        0.2922
     38 C         141.2229  142.1427  169.8994 C.3     1  UNL1        0.2542
     39 O         141.2987  142.7618  168.5353 O.3     1  UNL1       -0.4561
@<TRIPOS>BOND
     1    38    39    1
     2    39    26    1
     3    26    27   ar
     4    27    28   ar
     5    28    29   ar
     6    29    30   ar
     7    30    31   ar
     8    31    32   ar
     9    32    33    1
    10    32    34   ar
    11    34    25    1
    12    25    24    1
    13    24     1    1
    14     1     2    1
    15     2     3    1
    16     3     4    1
    17     4     9    1
    18     9    11    1
    19    11    12    1
    20    12    13   ar
    21    13    14   ar
    22    14    15   ar
    23    15    16   ar
    24    16    17   ar
    25    16    18    1
    26    18    19   am
    27    19    20    2
    28    19    21    1
    29    21    22    1
    30     4     5    1
    31     5     6    1
    32     4     7    1
    33     7     8    1
    34    34    35   ar
    35    35    36   ar
    36    36    26   ar
    37    35    29   ar
    38     6     1    1
    39     8     1    1
    40    17    12   ar
    41    22    15    1
    42    33    37    1
    43     9    10    1
    44    18    23    1
@<TRIPOS>MOLECULE
*****
 39 44 0 0 0
SMALL
GASTEIGER

@<TRIPOS>ATOM
      1 C         142.6595  144.3555  163.5926 C.3     1  UNL1        0.0932
      2 C         141.3971  144.2944  164.4004 C.3     1  UNL1        0.0286
      3 C         140.0759  144.1101  163.7146 C.3     1  UNL1        0.0193
      4 C         140.0170  143.9871  162.2207 C.3     1  UNL1        0.0700
      5 C         141.2794  144.0482  161.4129 C.3     1  UNL1        0.0193
      6 C         142.6006  144.2325  162.0988 C.3     1  UNL1        0.0286
      7 C         140.7643  144.0868  162.5518 C.3     1  UNL1        0.1562
      8 O         141.9590  144.2534  163.1720 O.3     1  UNL1       -0.3572
      9 N         138.6958  143.8029  161.5349 N.3     1  UNL1       -0.2926
     10 H         138.6634  144.4791  160.7719 H       1  UNL1        0.1236
     11 C         138.3347  142.4704  160.9482 C.3     1  UNL1        0.1152
     12 C         138.5184  141.2204  161.7566 C.ar    1  UNL1        0.0765
     13 C         139.1084  139.9963  161.1213 C.ar    1  UNL1        0.0193
     14 C         139.2921  138.7462  161.9298 C.ar    1  UNL1        0.0411
     15 C         138.8859  138.7202  163.3735 C.ar    1  UNL1        0.1708
     16 C         138.2960  139.9442  164.0088 C.ar    1  UNL1        0.1682
     17 N         138.1122  141.1944  163.2004 N.ar    1  UNL1       -0.2304
     18 N         137.8898  139.9182  165.4525 N.am    1  UNL1       -0.2639
     19 C         138.0735  138.6682  166.2609 C.2     1  UNL1        0.2718
     20 O         137.6674  138.6422  167.7046 O.2     1  UNL1       -0.2707
     21 C         138.6635  137.4441  165.6256 C.3     1  UNL1        0.2898
     22 O         139.0697  137.4701  164.1819 O.3     1  UNL1       -0.4628
     23 H         137.5026  140.7216  165.8695 H       1  UNL1        0.1565
     24 C         143.9807  144.5397  164.2784 C.3     1  UNL1        0.0320
     25 C         144.7469  143.3449  164.7636 C.3     1  UNL1        0.0335
     26 C         141.9986  141.0796  167.5141 C.ar    1  UNL1        0.2250
     27 C         141.5437  139.6979  167.1485 C.ar    1  UNL1        0.0593
     28 C         142.0048  139.0711  165.8661 C.ar    1  UNL1        0.0254
     29 C         142.9209  139.8262  164.9493 C.ar    1  UNL1        0.0990
     30 N         143.3821  139.1995  163.6669 N.ar    1  UNL1       -0.2392
     31 C         144.2981  139.9546  162.7500 C.ar    1  UNL1        0.1351
     32 C         144.7531  141.3364  163.1156 C.ar    1  UNL1        0.1502
     33 O         145.6692  142.0915  162.1988 O.3     1  UNL1       -0.5042
     34 C         144.2920  141.9631  164.3980 C.ar    1  UNL1        0.0323
     35 C         143.3759  141.2080  165.3149 C.ar    1  UNL1        0.1009
     36 N         142.9147  141.8347  166.5973 N.ar    1  UNL1       -0.2104
     37 H         145.9573  141.7000  161.3977 H       1  UNL1        0.2922
     38 C         140.4876  142.7773  168.7728 C.3     1  UNL1        0.2542
     39 O         141.5375  141.7063  168.7965 O.3     1  UNL1       -0.4561
@<TRIPOS>BOND
     1    38    39    1
     2    39    26    1
     3    26    27   ar
     4    27    28   ar
     5    28    29   ar
     6    29    30   ar
     7    30    31   ar
     8    31    32   ar
     9    32    33    1
    10    32    34   ar
    11    34    25    1
    12    25    24    1
    13    24     1    1
    14     1     2    1
    15     2     3    1
    16     3     4    1
    17     4     9    1
    18     9    11    1
    19    11    12    1
    20    12    13   ar
    21    13    14   ar
    22    14    15   ar
    23    15    16   ar
    24    16    17   ar
    25    16    18    1
    26    18    19   am
    27    19    20    2
    28    19    21    1
    29    21    22    1
    30     4     5    1
    31     5     6    1
    32     4     7    1
    33     7     8    1
    34    34    35   ar
    35    35    36   ar
    36    36    26   ar
    37    35    29   ar
    38     6     1    1
    39     8     1    1
    40    17    12   ar
    41    22    15    1
    42    33    37    1
    43     9    10    1
    44    18    23    1
@<TRIPOS>MOLECULE
*****
 39 44 0 0 0
SMALL
GASTEIGER

@<TRIPOS>ATOM
      1 C         138.4848  139.2512  163.9076 C.3     1  UNL1        0.0932
      2 C         138.2096  140.3299  164.9129 C.3     1  UNL1        0.0286
      3 C         137.8229  141.7039  164.4518 C.3     1  UNL1        0.0193
      4 C         137.7115  141.9992  162.9853 C.3     1  UNL1        0.0700
      5 C         137.9867  140.9205  161.9800 C.3     1  UNL1        0.0193
      6 C         138.3733  139.5465  162.4412 C.3     1  UNL1        0.0286
      7 C         137.9265  141.2312  163.1900 C.3     1  UNL1        0.1562
      8 O         138.2761  139.9888  163.6069 O.3     1  UNL1       -0.3572
      9 N         137.3248  143.3732  162.5243 N.3     1  UNL1       -0.2926
     10 H         136.4568  143.6114  163.0040 H       1  UNL1        0.1236
     11 C         138.2633  144.5251  162.7299 C.3     1  UNL1        0.1152
     12 C         139.7459  144.3009  162.6901 C.ar    1  UNL1        0.0765
     13 C         140.5984  144.7141  163.8532 C.ar    1  UNL1        0.0193
     14 C         142.0810  144.4899  163.8134 C.ar    1  UNL1        0.0411
     15 C         142.7112  143.8525  162.6107 C.ar    1  UNL1        0.1708
     16 C         141.8588  143.4393  161.4477 C.ar    1  UNL1        0.1682
     17 N         140.3761  143.6635  161.4874 N.ar    1  UNL1       -0.2304
     18 N         142.4889  142.8019  160.2449 N.am    1  UNL1       -0.2639
     19 C         143.9715  142.5777  160.2052 C.2     1  UNL1        0.2718
     20 O         144.6017  141.9403  159.0024 O.2     1  UNL1       -0.2707
     21 C         144.8240  142.9909  161.3682 C.3     1  UNL1        0.2898
     22 O         144.1938  143.6283  162.5710 O.3     1  UNL1       -0.4628
     23 H         141.9294  142.5307  159.4816 H       1  UNL1        0.1565
     24 C         138.8714  137.8772  164.3686 C.3     1  UNL1        0.0320
     25 C         140.2784  137.6026  164.8103 C.3     1  UNL1        0.0335
     26 C         141.7514  140.9974  167.3707 C.ar    1  UNL1        0.2250
     27 C         142.8726  141.8690  166.8881 C.ar    1  UNL1        0.0593
     28 C         143.5029  141.6091  165.5520 C.ar    1  UNL1        0.0254
     29 C         143.0119  140.4775  164.6985 C.ar    1  UNL1        0.0990
     30 N         143.6422  140.2176  163.3624 N.ar    1  UNL1       -0.2392
     31 C         143.1513  139.0860  162.5090 C.ar    1  UNL1        0.1351
     32 C         142.0300  138.2143  162.9916 C.ar    1  UNL1        0.1502
     33 O         141.5390  137.0827  162.1381 O.3     1  UNL1       -0.5042
     34 C         141.3997  138.4742  164.3277 C.ar    1  UNL1        0.0323
     35 C         141.8907  139.6059  165.1812 C.ar    1  UNL1        0.1009
     36 N         141.2604  139.8658  166.5173 N.ar    1  UNL1       -0.2104
     37 H         141.9328  136.9203  161.3035 H       1  UNL1        0.2922
     38 C         139.8125  140.6130  169.0569 C.3     1  UNL1        0.2542
     39 O         141.1211  141.2573  168.7068 O.3     1  UNL1       -0.4561
@<TRIPOS>BOND
     1    38    39    1
     2    39    26    1
     3    26    27   ar
     4    27    28   ar
     5    28    29   ar
     6    29    30   ar
     7    30    31   ar
     8    31    32   ar
     9    32    33    1
    10    32    34   ar
    11    34    25    1
    12    25    24    1
    13    24     1    1
    14     1     2    1
    15     2     3    1
    16     3     4    1
    17     4     9    1
    18     9    11    1
    19    11    12    1
    20    12    13   ar
    21    13    14   ar
    22    14    15   ar
    23    15    16   ar
    24    16    17   ar
    25    16    18    1
    26    18    19   am
    27    19    20    2
    28    19    21    1
    29    21    22    1
    30     4     5    1
    31     5     6    1
    32     4     7    1
    33     7     8    1
    34    34    35   ar
    35    35    36   ar
    36    36    26   ar
    37    35    29   ar
    38     6     1    1
    39     8     1    1
    40    17    12   ar
    41    22    15    1
    42    33    37    1
    43     9    10    1
    44    18    23    1
@<TRIPOS>MOLECULE
*****
 39 44 0 0 0
SMALL
GASTEIGER

@<TRIPOS>ATOM
      1 C         139.1512  143.4600  163.5041 C.3     1  UNL1        0.0932
      2 C         140.0755  143.9121  164.5957 C.3     1  UNL1        0.0286
      3 C         141.4079  144.5084  164.2511 C.3     1  UNL1        0.0193
      4 C         141.8162  144.6528  162.8149 C.3     1  UNL1        0.0700
      5 C         140.8919  144.2008  161.7234 C.3     1  UNL1        0.0193
      6 C         139.5594  143.6044  162.0680 C.3     1  UNL1        0.0286
      7 C         141.0761  144.3201  162.9546 C.3     1  UNL1        0.1562
      8 O         139.8712  143.7808  163.2662 O.3     1  UNL1       -0.3572
      9 N         143.1487  145.2492  162.4703 N.3     1  UNL1       -0.2926
     10 H         143.2477  146.0939  163.0334 H       1  UNL1        0.1236
     11 C         144.4020  144.4487  162.6665 C.3     1  UNL1        0.1152
     12 C         144.3531  142.9509  162.6018 C.ar    1  UNL1        0.0765
     13 C         144.7035  142.1362  163.8116 C.ar    1  UNL1        0.0193
     14 C         144.6546  140.6384  163.7470 C.ar    1  UNL1        0.0411
     15 C         144.2553  139.9553  162.4727 C.ar    1  UNL1        0.1708
     16 C         143.9049  140.7700  161.2629 C.ar    1  UNL1        0.1682
     17 N         143.9538  142.2678  161.3275 N.ar    1  UNL1       -0.2304
     18 N         143.5056  140.0869  159.9886 N.am    1  UNL1       -0.2639
     19 C         143.4567  138.5891  159.9240 C.2     1  UNL1        0.2718
     20 O         143.0574  137.9060  158.6497 O.2     1  UNL1       -0.2707
     21 C         143.8071  137.7743  161.1338 C.3     1  UNL1        0.2898
     22 O         144.2064  138.4574  162.4081 O.3     1  UNL1       -0.4628
     23 H         143.2756  140.6216  159.1946 H       1  UNL1        0.1565
     24 C         137.8187  142.8637  163.8487 C.3     1  UNL1        0.0320
     25 C         137.7429  141.4838  164.4321 C.3     1  UNL1        0.0335
     26 C         141.3695  139.9230  166.5911 C.ar    1  UNL1        0.2250
     27 C         142.1776  138.8102  165.9923 C.ar    1  UNL1        0.0593
     28 C         141.7768  138.2176  164.6739 C.ar    1  UNL1        0.0254
     29 C         140.5680  138.7378  163.9543 C.ar    1  UNL1        0.0990
     30 N         140.1672  138.1452  162.6359 N.ar    1  UNL1       -0.2392
     31 C         138.9583  138.6654  161.9162 C.ar    1  UNL1        0.1351
     32 C         138.1501  139.7783  162.5149 C.ar    1  UNL1        0.1502
     33 O         136.9413  140.2986  161.7953 O.3     1  UNL1       -0.5042
     34 C         138.5509  140.3709  163.8333 C.ar    1  UNL1        0.0323
     35 C         139.7599  139.8506  164.5530 C.ar    1  UNL1        0.1009
     36 N         140.1607  140.4433  165.8714 N.ar    1  UNL1       -0.2104
     37 H         136.6909  139.9284  160.9717 H       1  UNL1        0.2922
     38 C         142.1000  139.6188  169.0657 C.3     1  UNL1        0.2542
     39 O         141.7703  140.5156  167.9095 O.3     1  UNL1       -0.4561
@<TRIPOS>BOND
     1    38    39    1
     2    39    26    1
     3    26    27   ar
     4    27    28   ar
     5    28    29   ar
     6    29    30   ar
     7    30    31   ar
     8    31    32   ar
     9    32    33    1
    10    32    34   ar
    11    34    25    1
    12    25    24    1
    13    24     1    1
    14     1     2    1
    15     2     3    1
    16     3     4    1
    17     4     9    1
    18     9    11    1
    19    11    12    1
    20    12    13   ar
    21    13    14   ar
    22    14    15   ar
    23    15    16   ar
    24    16    17   ar
    25    16    18    1
    26    18    19   am
    27    19    20    2
    28    19    21    1
    29    21    22    1
    30     4     5    1
    31     5     6    1
    32     4     7    1
    33     7     8    1
    34    34    35   ar
    35    35    36   ar
    36    36    26   ar
    37    35    29   ar
    38     6     1    1
    39     8     1    1
    40    17    12   ar
    41    22    15    1
    42    33    37    1
    43     9    10    1
    44    18    23    1
@<TRIPOS>MOLECULE
*****
 39 44 0 0 0
SMALL
GASTEIGER

@<TRIPOS>ATOM
      1 C         141.9927  138.0145  164.0863 C.3     1  UNL1        0.0932
      2 C         142.7671  138.6262  165.2159 C.3     1  UNL1        0.0286
      3 C         143.9773  139.4645  164.9282 C.3     1  UNL1        0.0193
      4 C         144.4131  139.6910  163.5109 C.3     1  UNL1        0.0700
      5 C         143.6387  139.0792  162.3813 C.3     1  UNL1        0.0193
      6 C         142.4285  138.2409  162.6690 C.3     1  UNL1        0.0286
      7 C         143.7435  139.2242  163.6191 C.3     1  UNL1        0.1562
      8 O         142.6492  138.4663  163.8792 O.3     1  UNL1       -0.3572
      9 N         145.6233  140.5292  163.2232 N.3     1  UNL1       -0.2926
     10 H         145.8137  140.4387  162.2253 H       1  UNL1        0.1236
     11 C         145.6088  141.9975  163.5298 C.3     1  UNL1        0.1152
     12 C         144.3521  142.7924  163.3327 C.ar    1  UNL1        0.0765
     13 C         143.5167  143.1806  164.5166 C.ar    1  UNL1        0.0193
     14 C         142.2601  143.9755  164.3195 C.ar    1  UNL1        0.0411
     15 C         141.8387  144.3823  162.9386 C.ar    1  UNL1        0.1708
     16 C         142.6740  143.9942  161.7547 C.ar    1  UNL1        0.1682
     17 N         143.9308  143.1992  161.9518 N.ar    1  UNL1       -0.2304
     18 N         142.2527  144.4010  160.3738 N.am    1  UNL1       -0.2639
     19 C         140.9961  145.1960  160.1768 C.2     1  UNL1        0.2718
     20 O         140.5747  145.6028  158.7958 O.2     1  UNL1       -0.2707
     21 C         140.1607  145.5841  161.3607 C.3     1  UNL1        0.2898
     22 O         140.5820  145.1773  162.7416 O.3     1  UNL1       -0.4628
     23 H         142.8010  144.1463  159.5968 H       1  UNL1        0.1565
     24 C         140.7826  137.1762  164.3740 C.3     1  UNL1        0.0320
     25 C         139.4117  137.7751  164.2630 C.3     1  UNL1        0.0335
     26 C         138.9252  139.9169  160.3354 C.ar    1  UNL1        0.2250
     27 C         138.7577  141.4072  160.3096 C.ar    1  UNL1        0.0593
     28 C         138.7524  142.1837  161.5929 C.ar    1  UNL1        0.0254
     29 C         138.9145  141.4698  162.9021 C.ar    1  UNL1        0.0990
     30 N         138.9091  142.2463  164.1855 N.ar    1  UNL1       -0.2392
     31 C         139.0713  141.5324  165.4947 C.ar    1  UNL1        0.1351
     32 C         139.2388  140.0419  165.5206 C.ar    1  UNL1        0.1502
     33 O         139.4010  139.3281  166.8298 O.3     1  UNL1       -0.5042
     34 C         139.2442  139.2655  164.2372 C.ar    1  UNL1        0.0323
     35 C         139.0820  139.9794  162.9279 C.ar    1  UNL1        0.1009
     36 N         139.0874  139.2030  161.6446 N.ar    1  UNL1       -0.2104
     37 H         139.3976  139.8131  167.6314 H       1  UNL1        0.2922
     38 C         138.7881  139.8563  157.7417 C.3     1  UNL1        0.2542
     39 O         138.9306  139.1404  159.0520 O.3     1  UNL1       -0.4561
@<TRIPOS>BOND
     1    38    39    1
     2    39    26    1
     3    26    27   ar
     4    27    28   ar
     5    28    29   ar
     6    29    30   ar
     7    30    31   ar
     8    31    32   ar
     9    32    33    1
    10    32    34   ar
    11    34    25    1
    12    25    24    1
    13    24     1    1
    14     1     2    1
    15     2     3    1
    16     3     4    1
    17     4     9    1
    18     9    11    1
    19    11    12    1
    20    12    13   ar
    21    13    14   ar
    22    14    15   ar
    23    15    16   ar
    24    16    17   ar
    25    16    18    1
    26    18    19   am
    27    19    20    2
    28    19    21    1
    29    21    22    1
    30     4     5    1
    31     5     6    1
    32     4     7    1
    33     7     8    1
    34    34    35   ar
    35    35    36   ar
    36    36    26   ar
    37    35    29   ar
    38     6     1    1
    39     8     1    1
    40    17    12   ar
    41    22    15    1
    42    33    37    1
    43     9    10    1
    44    18    23    1
@<TRIPOS>MOLECULE
*****
 39 44 0 0 0
SMALL
GASTEIGER

@<TRIPOS>ATOM
      1 C         140.2662  138.3880  162.6469 C.3     1  UNL1        0.0932
      2 C         140.8968  139.1326  163.7862 C.3     1  UNL1        0.0286
      3 C         142.3217  139.5901  163.6860 C.3     1  UNL1        0.0193
      4 C         143.1162  139.3030  162.4464 C.3     1  UNL1        0.0700
      5 C         142.4857  138.5585  161.3071 C.3     1  UNL1        0.0193
      6 C         141.0606  138.1009  161.4074 C.3     1  UNL1        0.0286
      7 C         142.3387  139.0323  162.4551 C.3     1  UNL1        0.1562
      8 O         141.0502  138.6186  162.5457 O.3     1  UNL1       -0.3572
      9 N         144.5412  139.7605  162.3462 N.3     1  UNL1       -0.2926
     10 H         144.9434  139.2951  161.5326 H       1  UNL1        0.1236
     11 C         144.8519  141.2214  162.2068 C.3     1  UNL1        0.1152
     12 C         144.0133  142.0844  161.3113 C.ar    1  UNL1        0.0765
     13 C         144.2207  142.0484  159.8261 C.ar    1  UNL1        0.0193
     14 C         143.3822  142.9114  158.9306 C.ar    1  UNL1        0.0411
     15 C         142.3361  143.8104  159.5202 C.ar    1  UNL1        0.1708
     16 C         142.1287  143.8464  161.0053 C.ar    1  UNL1        0.1682
     17 N         142.9673  142.9834  161.9009 N.ar    1  UNL1       -0.2304
     18 N         141.0826  144.7454  161.5949 N.am    1  UNL1       -0.2639
     19 C         140.2441  145.6084  160.6994 C.2     1  UNL1        0.2718
     20 O         139.1980  146.5074  161.2890 O.2     1  UNL1       -0.2707
     21 C         140.4515  145.5725  159.2142 C.3     1  UNL1        0.2898
     22 O         141.4975  144.6735  158.6246 O.3     1  UNL1       -0.4628
     23 H         140.9465  144.7690  162.5697 H       1  UNL1        0.1565
     24 C         138.8412  137.9305  162.7471 C.3     1  UNL1        0.0320
     25 C         137.7637  138.6651  162.0059 C.3     1  UNL1        0.0335
     26 C         138.7657  139.9772  157.8197 C.ar    1  UNL1        0.2250
     27 C         138.9292  141.4356  157.5097 C.ar    1  UNL1        0.0593
     28 C         138.7587  142.4568  158.5952 C.ar    1  UNL1        0.0254
     29 C         138.4247  142.0194  159.9906 C.ar    1  UNL1        0.0990
     30 N         138.2542  143.0406  161.0760 N.ar    1  UNL1       -0.2392
     31 C         137.9202  142.6033  162.4714 C.ar    1  UNL1        0.1351
     32 C         137.7567  141.1447  162.7814 C.ar    1  UNL1        0.1502
     33 O         137.4227  140.7074  164.1768 O.3     1  UNL1       -0.5042
     34 C         137.9272  140.1236  161.6959 C.ar    1  UNL1        0.0323
     35 C         138.2612  140.5610  160.3005 C.ar    1  UNL1        0.1009
     36 N         138.4317  139.5398  159.2151 N.ar    1  UNL1       -0.2104
     37 H         137.3162  141.3453  164.8548 H       1  UNL1        0.2922
     38 C         139.9188  137.8358  156.9060 C.3     1  UNL1        0.2542
     39 O         138.9362  138.9560  156.7342 O.3     1  UNL1       -0.4561
@<TRIPOS>BOND
     1    38    39    1
     2    39    26    1
     3    26    27   ar
     4    27    28   ar
     5    28    29   ar
     6    29    30   ar
     7    30    31   ar
     8    31    32   ar
     9    32    33    1
    10    32    34   ar
    11    34    25    1
    12    25    24    1
    13    24     1    1
    14     1     2    1
    15     2     3    1
    16     3     4    1
    17     4     9    1
    18     9    11    1
    19    11    12    1
    20    12    13   ar
    21    13    14   ar
    22    14    15   ar
    23    15    16   ar
    24    16    17   ar
    25    16    18    1
    26    18    19   am
    27    19    20    2
    28    19    21    1
    29    21    22    1
    30     4     5    1
    31     5     6    1
    32     4     7    1
    33     7     8    1
    34    34    35   ar
    35    35    36   ar
    36    36    26   ar
    37    35    29   ar
    38     6     1    1
    39     8     1    1
    40    17    12   ar
    41    22    15    1
    42    33    37    1
    43     9    10    1
    44    18    23    1
