@<TRIPOS>MOLECULE
*****
 33 36 0 0 0
SMALL
GASTEIGER

@<TRIPOS>ATOM
      1 N         142.7283  138.1321  161.1107 N.3     1  UNL1       -0.2685
      2 C         143.9435  138.7712  161.7146 C.3     1  UNL1        0.1035
      3 C         144.0350  138.9532  163.2007 C.3     1  UNL1        0.1470
      4 C         144.1265  139.1352  164.6868 C.3     1  UNL1        0.1037
      5 N         143.0028  138.6780  165.5690 N.3     1  UNL1       -0.2647
      6 C         141.7875  138.0388  164.9650 C.3     1  UNL1        0.1037
      7 C         141.6961  137.8569  163.4790 C.3     1  UNL1        0.1470
      8 C         141.6046  137.6749  161.9929 C.3     1  UNL1        0.1035
      9 O         142.9113  138.4960  164.0829 O.3     1  UNL1       -0.3530
     10 C         142.6368  137.9500  159.6246 C.3     1  UNL1        0.0737
     11 C         142.6039  139.1483  158.7228 C.3     1  UNL1        0.0362
     12 C         141.5884  140.2290  158.9484 C.3     1  UNL1        0.0929
     13 N         141.6330  141.0501  160.2029 N.3     1  UNL1       -0.1792
     14 H         142.2451  140.5591  160.8545 H       1  UNL1        0.1488
     15 S         140.3657  141.3548  160.9452 S.O2    1  UNL1        0.0642
     16 O         141.0888  141.1872  162.2486 O.2     1  UNL1       -0.1529
     17 O         139.6425  141.5224  159.6418 O.2     1  UNL1       -0.1529
     18 C         138.1047  139.1835  161.8528 C.3     1  UNL1        0.0571
     19 C         138.0591  140.6615  162.1046 C.ar    1  UNL1        0.1192
     20 N         136.9662  141.4009  162.8179 N.ar    1  UNL1       -0.0803
     21 O         137.3299  142.8560  162.8416 O.2     1  UNL1       -0.3567
     22 C         138.6476  143.0158  162.1430 C.ar    1  UNL1        0.1729
     23 C         139.3853  144.3055  161.9361 C.3     1  UNL1        0.0768
     24 C         139.0983  141.6595  161.6875 C.ar    1  UNL1        0.1712
     25 C         143.0943  138.8600  167.0551 C.3     1  UNL1        0.0993
     26 C         142.4699  140.0599  167.7036 C.ar    1  UNL1       -0.0061
     27 C         142.5183  140.2167  169.1946 C.ar    1  UNL1       -0.0022
     28 C         141.8940  141.4165  169.8432 C.ar    1  UNL1        0.0100
     29 C         141.2213  142.4594  169.0008 C.ar    1  UNL1        0.0684
     30 C         141.1729  142.3026  167.5098 C.ar    1  UNL1        0.0100
     31 C         141.7972  141.1028  166.8612 C.ar    1  UNL1       -0.0022
     32 C         140.5969  143.6593  169.6493 C.1     1  UNL1        0.1004
     33 N         139.9725  144.8591  170.2978 N.1     1  UNL1       -0.1908
@<TRIPOS>BOND
     1    18    19    1
     2    19    20   ar
     3    20    21   ar
     4    21    22   ar
     5    22    23    1
     6    22    24   ar
     7    24    15    1
     8    15    16    2
     9    15    17    2
    10    15    13    1
    11    13    12    1
    12    12    11    1
    13    11    10    1
    14    10     1    1
    15     1     2    1
    16     2     3    1
    17     3     4    1
    18     4     5    1
    19     5    25    1
    20    25    26    1
    21    26    27   ar
    22    27    28   ar
    23    28    29   ar
    24    29    32    1
    25    32    33    3
    26    29    30   ar
    27    30    31   ar
    28     5     6    1
    29     6     7    1
    30     7     8    1
    31     7     9    1
    32    24    19   ar
    33     8     1    1
    34     9     3    1
    35    31    26   ar
    36    13    14    1
@<TRIPOS>MOLECULE
*****
 33 36 0 0 0
SMALL
GASTEIGER

@<TRIPOS>ATOM
      1 N         142.8925  138.3473  160.9166 N.3     1  UNL1       -0.2685
      2 C         141.7809  137.7962  161.7595 C.3     1  UNL1        0.1035
      3 C         141.8411  137.9182  163.2532 C.3     1  UNL1        0.1470
      4 C         141.9012  138.0403  164.7471 C.3     1  UNL1        0.1037
      5 N         143.0730  138.7134  165.3980 N.3     1  UNL1       -0.2647
      6 C         144.1847  139.2645  164.5551 C.3     1  UNL1        0.1037
      7 C         144.1245  139.1425  163.0613 C.3     1  UNL1        0.1470
      8 C         144.0644  139.0204  161.5675 C.3     1  UNL1        0.1035
      9 O         143.0129  138.5914  163.9042 O.3     1  UNL1       -0.3530
     10 C         142.8324  138.2253  159.4227 C.3     1  UNL1        0.0737
     11 C         142.6457  139.4500  158.5771 C.3     1  UNL1        0.0362
     12 C         141.6072  140.4667  158.9485 C.3     1  UNL1        0.0929
     13 N         141.6934  141.1803  160.2651 N.3     1  UNL1       -0.1792
     14 H         142.2476  140.5892  160.8846 H       1  UNL1        0.1488
     15 S         140.4403  141.5335  161.0101 S.O2    1  UNL1        0.0642
     16 O         139.7206  141.7263  159.7083 O.2     1  UNL1       -0.1529
     17 O         141.1600  141.3407  162.3119 O.2     1  UNL1       -0.1529
     18 C         138.1019  139.4500  161.9270 C.3     1  UNL1        0.0571
     19 C         138.1124  140.9290  162.1766 C.ar    1  UNL1        0.1192
     20 N         137.0499  141.7100  162.8915 N.ar    1  UNL1       -0.0803
     21 O         137.4681  143.1505  162.9120 O.2     1  UNL1       -0.3567
     22 C         138.7890  143.2596  162.2097 C.ar    1  UNL1        0.1729
     23 C         139.5740  144.5204  161.9988 C.3     1  UNL1        0.0768
     24 C         139.1872  141.8867  161.7552 C.ar    1  UNL1        0.1712
     25 C         143.1332  138.8354  166.8918 C.3     1  UNL1        0.0993
     26 C         142.5140  140.0197  167.5732 C.ar    1  UNL1       -0.0061
     27 C         141.8298  141.0791  166.7611 C.ar    1  UNL1       -0.0022
     28 C         141.2106  142.2634  167.4423 C.ar    1  UNL1        0.0100
     29 C         141.2756  142.3882  168.9357 C.ar    1  UNL1        0.0684
     30 C         141.9598  141.3288  169.7478 C.ar    1  UNL1        0.0100
     31 C         142.5790  140.1445  169.0665 C.ar    1  UNL1       -0.0022
     32 C         140.6564  143.5725  169.6170 C.1     1  UNL1        0.1004
     33 N         140.0373  144.7567  170.2983 N.1     1  UNL1       -0.1908
@<TRIPOS>BOND
     1    18    19    1
     2    19    20   ar
     3    20    21   ar
     4    21    22   ar
     5    22    23    1
     6    22    24   ar
     7    24    15    1
     8    15    16    2
     9    15    17    2
    10    15    13    1
    11    13    12    1
    12    12    11    1
    13    11    10    1
    14    10     1    1
    15     1     2    1
    16     2     3    1
    17     3     4    1
    18     4     5    1
    19     5    25    1
    20    25    26    1
    21    26    27   ar
    22    27    28   ar
    23    28    29   ar
    24    29    32    1
    25    32    33    3
    26    29    30   ar
    27    30    31   ar
    28     5     6    1
    29     6     7    1
    30     7     8    1
    31     7     9    1
    32    24    19   ar
    33     8     1    1
    34     9     3    1
    35    31    26   ar
    36    13    14    1
@<TRIPOS>MOLECULE
*****
 33 36 0 0 0
SMALL
GASTEIGER

@<TRIPOS>ATOM
      1 N         138.6938  139.2467  161.3379 N.3     1  UNL1       -0.2685
      2 C         139.0431  138.0003  162.0958 C.3     1  UNL1        0.1035
      3 C         139.0412  138.0093  163.5957 C.3     1  UNL1        0.1470
      4 C         139.0393  138.0183  165.0958 C.3     1  UNL1        0.1037
      5 N         138.6881  139.2738  165.8378 N.3     1  UNL1       -0.2647
      6 C         138.3388  140.5202  165.0798 C.3     1  UNL1        0.1037
      7 C         138.3407  140.5112  163.5798 C.3     1  UNL1        0.1470
      8 C         138.3427  140.5021  162.0799 C.3     1  UNL1        0.1035
      9 O         138.6900  139.2648  164.3378 O.3     1  UNL1       -0.3530
     10 C         138.6958  139.2377  159.8379 C.3     1  UNL1        0.0737
     11 C         139.9632  138.9445  159.0912 C.3     1  UNL1        0.0362
     12 C         141.2627  139.5279  159.5613 C.3     1  UNL1        0.0929
     13 N         141.9848  138.9120  160.7229 N.3     1  UNL1       -0.1792
     14 H         141.2730  138.6362  161.3994 H       1  UNL1        0.1488
     15 S         143.0116  139.7063  161.4742 S.O2    1  UNL1        0.0642
     16 O         144.1020  138.8851  160.8523 O.2     1  UNL1       -0.1529
     17 O         141.9213  140.5275  162.0962 O.2     1  UNL1       -0.1529
     18 C         144.1553  139.0307  164.4551 C.3     1  UNL1        0.0571
     19 C         144.5641  140.1901  163.5958 C.ar    1  UNL1        0.1192
     20 N         145.5704  141.2426  163.9558 N.ar    1  UNL1       -0.0803
     21 O         145.6667  142.2038  162.8081 O.2     1  UNL1       -0.3567
     22 C         144.7199  141.7452  161.7389 C.ar    1  UNL1        0.1729
     23 C         144.4941  142.4137  160.4152 C.3     1  UNL1        0.0768
     24 C         144.0385  140.5007  162.2257 C.ar    1  UNL1        0.1712
     25 C         138.6862  139.2828  167.3377 C.3     1  UNL1        0.0993
     26 C         139.6137  140.1959  168.0835 C.ar    1  UNL1       -0.0061
     27 C         139.2542  140.6680  169.4611 C.ar    1  UNL1       -0.0022
     28 C         140.1817  141.5810  170.2068 C.ar    1  UNL1        0.0100
     29 C         141.4686  142.0219  169.5749 C.ar    1  UNL1        0.0684
     30 C         141.8281  141.5498  168.1973 C.ar    1  UNL1        0.0100
     31 C         140.9006  140.6368  167.4516 C.ar    1  UNL1       -0.0022
     32 C         142.3962  142.9350  170.3207 C.1     1  UNL1        0.1004
     33 N         143.3236  143.8480  171.0663 N.1     1  UNL1       -0.1908
@<TRIPOS>BOND
     1    18    19    1
     2    19    20   ar
     3    20    21   ar
     4    21    22   ar
     5    22    23    1
     6    22    24   ar
     7    24    15    1
     8    15    16    2
     9    15    17    2
    10    15    13    1
    11    13    12    1
    12    12    11    1
    13    11    10    1
    14    10     1    1
    15     1     2    1
    16     2     3    1
    17     3     4    1
    18     4     5    1
    19     5    25    1
    20    25    26    1
    21    26    27   ar
    22    27    28   ar
    23    28    29   ar
    24    29    32    1
    25    32    33    3
    26    29    30   ar
    27    30    31   ar
    28     5     6    1
    29     6     7    1
    30     7     8    1
    31     7     9    1
    32    24    19   ar
    33     8     1    1
    34     9     3    1
    35    31    26   ar
    36    13    14    1
@<TRIPOS>MOLECULE
*****
 33 36 0 0 0
SMALL
GASTEIGER

@<TRIPOS>ATOM
      1 N         144.4735  141.8035  160.4914 N.3     1  UNL1       -0.2685
      2 C         144.0214  140.3739  160.4498 C.3     1  UNL1        0.1035
      3 C         143.8340  139.6092  161.7265 C.3     1  UNL1        0.1470
      4 C         143.6465  138.8444  163.0032 C.3     1  UNL1        0.1037
      5 N         143.9111  139.5092  164.3215 N.3     1  UNL1       -0.2647
      6 C         144.3633  140.9389  164.3631 C.3     1  UNL1        0.1037
      7 C         144.5507  141.7036  163.0864 C.3     1  UNL1        0.1470
      8 C         144.7382  142.4684  161.8097 C.3     1  UNL1        0.1035
      9 O         144.0986  140.2740  163.0448 O.3     1  UNL1       -0.3530
     10 C         144.6610  142.5684  159.2147 C.3     1  UNL1        0.0737
     11 C         143.4710  143.1325  158.4967 C.3     1  UNL1        0.0362
     12 C         142.2927  143.6347  159.2773 C.3     1  UNL1        0.0929
     13 N         141.5597  142.7123  160.2056 N.3     1  UNL1       -0.1792
     14 H         140.8467  142.2403  159.6495 H       1  UNL1        0.1488
     15 S         140.8693  143.2619  161.4185 S.O2    1  UNL1        0.0642
     16 O         140.5820  144.5345  160.6783 O.2     1  UNL1       -0.1529
     17 O         141.1566  141.9894  162.1587 O.2     1  UNL1       -0.1529
     18 C         137.7294  142.8334  162.1977 C.3     1  UNL1        0.0571
     19 C         138.7357  143.6146  162.9896 C.ar    1  UNL1        0.1192
     20 N         138.4753  144.3360  164.2787 N.ar    1  UNL1       -0.0803
     21 O         139.7577  144.9789  164.7173 O.2     1  UNL1       -0.3567
     22 C         140.8105  144.6547  163.6993 C.ar    1  UNL1        0.1729
     23 C         142.2435  145.0962  163.7416 C.3     1  UNL1        0.0768
     24 C         140.1789  143.8116  162.6315 C.ar    1  UNL1        0.1712
     25 C         143.7237  138.7445  165.5982 C.3     1  UNL1        0.0993
     26 C         142.6495  139.1489  166.5639 C.ar    1  UNL1       -0.0061
     27 C         142.9276  139.1495  168.0379 C.ar    1  UNL1       -0.0022
     28 C         141.8535  139.5540  169.0037 C.ar    1  UNL1        0.0100
     29 C         140.5013  139.9578  168.4954 C.ar    1  UNL1        0.0684
     30 C         140.2232  139.9573  167.0214 C.ar    1  UNL1        0.0100
     31 C         141.2973  139.5528  166.0557 C.ar    1  UNL1       -0.0022
     32 C         139.4271  140.3623  169.4612 C.1     1  UNL1        0.1004
     33 N         138.3530  140.7667  170.4269 N.1     1  UNL1       -0.1908
@<TRIPOS>BOND
     1    18    19    1
     2    19    20   ar
     3    20    21   ar
     4    21    22   ar
     5    22    23    1
     6    22    24   ar
     7    24    15    1
     8    15    16    2
     9    15    17    2
    10    15    13    1
    11    13    12    1
    12    12    11    1
    13    11    10    1
    14    10     1    1
    15     1     2    1
    16     2     3    1
    17     3     4    1
    18     4     5    1
    19     5    25    1
    20    25    26    1
    21    26    27   ar
    22    27    28   ar
    23    28    29   ar
    24    29    32    1
    25    32    33    3
    26    29    30   ar
    27    30    31   ar
    28     5     6    1
    29     6     7    1
    30     7     8    1
    31     7     9    1
    32    24    19   ar
    33     8     1    1
    34     9     3    1
    35    31    26   ar
    36    13    14    1
@<TRIPOS>MOLECULE
*****
 33 36 0 0 0
SMALL
GASTEIGER

@<TRIPOS>ATOM
      1 N         138.2087  139.9536  160.8317 N.3     1  UNL1       -0.2685
      2 C         138.7175  138.6564  161.3869 C.3     1  UNL1        0.1035
      3 C         138.8195  138.4645  162.8711 C.3     1  UNL1        0.1470
      4 C         138.9215  138.2726  164.3553 C.3     1  UNL1        0.1037
      5 N         138.5148  139.3779  165.2842 N.3     1  UNL1       -0.2647
      6 C         138.0060  140.6752  164.7288 C.3     1  UNL1        0.1037
      7 C         137.9040  140.8671  163.2447 C.3     1  UNL1        0.1470
      8 C         137.8020  141.0589  161.7605 C.3     1  UNL1        0.1035
      9 O         138.4127  139.5699  163.7999 O.3     1  UNL1       -0.3530
     10 C         138.1067  140.1455  159.3474 C.3     1  UNL1        0.0737
     11 C         139.3362  140.4510  158.5444 C.3     1  UNL1        0.0362
     12 C         140.3278  141.4592  159.0451 C.3     1  UNL1        0.0929
     13 N         141.0532  141.2205  160.3361 N.3     1  UNL1       -0.1792
     14 H         140.4626  140.6061  160.8965 H       1  UNL1        0.1488
     15 S         141.4265  142.3796  161.2119 S.O2    1  UNL1        0.0642
     16 O         141.5282  143.2608  160.0024 O.2     1  UNL1       -0.1529
     17 O         141.3248  141.4983  162.4215 O.2     1  UNL1       -0.1529
     18 C         139.3474  144.4183  162.6853 C.3     1  UNL1        0.0571
     19 C         140.8442  144.4757  162.7651 C.ar    1  UNL1        0.1192
     20 N         141.6481  145.4803  163.5361 N.ar    1  UNL1       -0.0803
     21 O         143.1007  145.1641  163.3355 O.2     1  UNL1       -0.3567
     22 C         143.1944  143.9641  162.4404 C.ar    1  UNL1        0.1729
     23 C         144.4605  143.3052  161.9788 C.3     1  UNL1        0.0768
     24 C         141.7999  143.5386  162.0879 C.ar    1  UNL1        0.1712
     25 C         138.6168  139.1861  166.7683 C.3     1  UNL1        0.0993
     26 C         139.5101  140.0766  167.5801 C.ar    1  UNL1       -0.0061
     27 C         139.2315  140.2900  169.0385 C.ar    1  UNL1       -0.0022
     28 C         140.1247  141.1805  169.8502 C.ar    1  UNL1        0.0100
     29 C         141.2966  141.8577  169.2036 C.ar    1  UNL1        0.0684
     30 C         141.5752  141.6443  167.7453 C.ar    1  UNL1        0.0100
     31 C         140.6820  140.7538  166.9335 C.ar    1  UNL1       -0.0022
     32 C         142.1899  142.7483  170.0154 C.1     1  UNL1        0.1004
     33 N         143.0833  143.6388  170.8271 N.1     1  UNL1       -0.1908
@<TRIPOS>BOND
     1    18    19    1
     2    19    20   ar
     3    20    21   ar
     4    21    22   ar
     5    22    23    1
     6    22    24   ar
     7    24    15    1
     8    15    16    2
     9    15    17    2
    10    15    13    1
    11    13    12    1
    12    12    11    1
    13    11    10    1
    14    10     1    1
    15     1     2    1
    16     2     3    1
    17     3     4    1
    18     4     5    1
    19     5    25    1
    20    25    26    1
    21    26    27   ar
    22    27    28   ar
    23    28    29   ar
    24    29    32    1
    25    32    33    3
    26    29    30   ar
    27    30    31   ar
    28     5     6    1
    29     6     7    1
    30     7     8    1
    31     7     9    1
    32    24    19   ar
    33     8     1    1
    34     9     3    1
    35    31    26   ar
    36    13    14    1
@<TRIPOS>MOLECULE
*****
 33 36 0 0 0
SMALL
GASTEIGER

@<TRIPOS>ATOM
      1 N         142.6983  138.5135  161.0183 N.3     1  UNL1       -0.2685
      2 C         143.9278  139.1280  161.6188 C.3     1  UNL1        0.1035
      3 C         144.1014  139.1555  163.1085 C.3     1  UNL1        0.1470
      4 C         144.2750  139.1832  164.5982 C.3     1  UNL1        0.1037
      5 N         143.2190  138.5963  165.4873 N.3     1  UNL1       -0.2647
      6 C         141.9894  137.9819  164.8867 C.3     1  UNL1        0.1037
      7 C         141.8159  137.9543  163.3970 C.3     1  UNL1        0.1470
      8 C         141.6423  137.9267  161.9074 C.3     1  UNL1        0.1035
      9 O         143.0454  138.5687  163.9976 O.3     1  UNL1       -0.3530
     10 C         142.5247  138.4859  159.5286 C.3     1  UNL1        0.0737
     11 C         141.5441  139.4107  158.8705 C.3     1  UNL1        0.0362
     12 C         141.4317  140.8345  159.3293 C.3     1  UNL1        0.0929
     13 N         140.8619  141.1438  160.6819 N.3     1  UNL1       -0.1792
     14 H         139.8639  141.3080  160.5504 H       1  UNL1        0.1488
     15 S         141.3914  142.3043  161.4712 S.O2    1  UNL1        0.0642
     16 O         141.3247  143.1677  160.2464 O.2     1  UNL1       -0.1529
     17 O         141.4580  141.4409  162.6959 O.2     1  UNL1       -0.1529
     18 C         139.5988  144.5286  163.0488 C.3     1  UNL1        0.0571
     19 C         141.0969  144.4871  162.9857 C.ar    1  UNL1        0.1192
     20 N         142.0340  145.4608  163.6366 N.ar    1  UNL1       -0.0803
     21 O         143.4372  145.0403  163.3137 O.2     1  UNL1       -0.3567
     22 C         143.3672  143.8066  162.4633 C.ar    1  UNL1        0.1729
     23 C         144.5381  143.0480  161.9122 C.3     1  UNL1        0.0768
     24 C         141.9208  143.4648  162.2605 C.ar    1  UNL1        0.1712
     25 C         143.3926  138.6239  166.9769 C.3     1  UNL1        0.0993
     26 C         142.5637  139.5549  167.8115 C.ar    1  UNL1       -0.0061
     27 C         142.2756  139.2214  169.2453 C.ar    1  UNL1       -0.0022
     28 C         141.4468  140.1523  170.0799 C.ar    1  UNL1        0.0100
     29 C         140.9061  141.4166  169.4806 C.ar    1  UNL1        0.0684
     30 C         141.1941  141.7500  168.0468 C.ar    1  UNL1        0.0100
     31 C         142.0229  140.8191  167.2122 C.ar    1  UNL1       -0.0022
     32 C         140.0772  142.3475  170.3152 C.1     1  UNL1        0.1004
     33 N         139.2484  143.2783  171.1497 N.1     1  UNL1       -0.1908
@<TRIPOS>BOND
     1    18    19    1
     2    19    20   ar
     3    20    21   ar
     4    21    22   ar
     5    22    23    1
     6    22    24   ar
     7    24    15    1
     8    15    16    2
     9    15    17    2
    10    15    13    1
    11    13    12    1
    12    12    11    1
    13    11    10    1
    14    10     1    1
    15     1     2    1
    16     2     3    1
    17     3     4    1
    18     4     5    1
    19     5    25    1
    20    25    26    1
    21    26    27   ar
    22    27    28   ar
    23    28    29   ar
    24    29    32    1
    25    32    33    3
    26    29    30   ar
    27    30    31   ar
    28     5     6    1
    29     6     7    1
    30     7     8    1
    31     7     9    1
    32    24    19   ar
    33     8     1    1
    34     9     3    1
    35    31    26   ar
    36    13    14    1
@<TRIPOS>MOLECULE
*****
 33 36 0 0 0
SMALL
GASTEIGER

@<TRIPOS>ATOM
      1 N         140.1239  138.5205  160.3915 N.3     1  UNL1       -0.2685
      2 C         141.5936  138.6619  160.6555 C.3     1  UNL1        0.1035
      3 C         142.0956  138.7682  162.0650 C.3     1  UNL1        0.1470
      4 C         142.5976  138.8744  163.4745 C.3     1  UNL1        0.1037
      5 N         141.6298  138.8392  164.6200 N.3     1  UNL1       -0.2647
      6 C         140.1600  138.6978  164.3559 C.3     1  UNL1        0.1037
      7 C         139.6580  138.5915  162.9464 C.3     1  UNL1        0.1470
      8 C         139.1561  138.4853  161.5370 C.3     1  UNL1        0.1035
      9 O         141.1278  138.7330  163.2104 O.3     1  UNL1       -0.3530
     10 C         139.6218  138.4142  158.9819 C.3     1  UNL1        0.0737
     11 C         139.2999  139.6561  158.2048 C.3     1  UNL1        0.0362
     12 C         138.8692  140.9002  158.9237 C.3     1  UNL1        0.0929
     13 N         139.8578  141.6705  159.7479 N.3     1  UNL1       -0.1792
     14 H         140.5477  140.9987  160.0842 H       1  UNL1        0.1488
     15 S         139.3929  142.4488  160.9429 S.O2    1  UNL1        0.0642
     16 O         138.2503  142.9976  160.1411 O.2     1  UNL1       -0.1529
     17 O         140.5356  141.8999  161.7448 O.2     1  UNL1       -0.1529
     18 C         137.3003  141.4026  163.2181 C.3     1  UNL1        0.0571
     19 C         137.9662  142.7462  163.1838 C.ar    1  UNL1        0.1192
     20 N         137.7872  143.8448  164.1893 N.ar    1  UNL1       -0.0803
     21 O         138.6385  145.0047  163.7650 O.2     1  UNL1       -0.3567
     22 C         139.3436  144.6229  162.4973 C.ar    1  UNL1        0.1729
     23 C         140.2968  145.4856  161.7243 C.3     1  UNL1        0.0768
     24 C         138.9281  143.2271  162.1381 C.ar    1  UNL1        0.1712
     25 C         142.1318  138.9455  166.0295 C.3     1  UNL1        0.0993
     26 C         141.7094  140.0984  166.8912 C.ar    1  UNL1       -0.0061
     27 C         141.4143  139.8791  168.3454 C.ar    1  UNL1       -0.0022
     28 C         140.9919  141.0320  169.2071 C.ar    1  UNL1        0.0100
     29 C         140.8647  142.4040  168.6146 C.ar    1  UNL1        0.0684
     30 C         141.1598  142.6233  167.1603 C.ar    1  UNL1        0.0100
     31 C         141.5822  141.4705  166.2986 C.ar    1  UNL1       -0.0022
     32 C         140.4423  143.5569  169.4763 C.1     1  UNL1        0.1004
     33 N         140.0199  144.7098  170.3379 N.1     1  UNL1       -0.1908
@<TRIPOS>BOND
     1    18    19    1
     2    19    20   ar
     3    20    21   ar
     4    21    22   ar
     5    22    23    1
     6    22    24   ar
     7    24    15    1
     8    15    16    2
     9    15    17    2
    10    15    13    1
    11    13    12    1
    12    12    11    1
    13    11    10    1
    14    10     1    1
    15     1     2    1
    16     2     3    1
    17     3     4    1
    18     4     5    1
    19     5    25    1
    20    25    26    1
    21    26    27   ar
    22    27    28   ar
    23    28    29   ar
    24    29    32    1
    25    32    33    3
    26    29    30   ar
    27    30    31   ar
    28     5     6    1
    29     6     7    1
    30     7     8    1
    31     7     9    1
    32    24    19   ar
    33     8     1    1
    34     9     3    1
    35    31    26   ar
    36    13    14    1
@<TRIPOS>MOLECULE
*****
 33 36 0 0 0
SMALL
GASTEIGER

@<TRIPOS>ATOM
      1 N         138.7692  139.4181  161.1463 N.3     1  UNL1       -0.2685
      2 C         139.4871  138.3409  161.9042 C.3     1  UNL1        0.1035
      3 C         139.4566  138.3314  163.4038 C.3     1  UNL1        0.1470
      4 C         139.4262  138.3218  164.9035 C.3     1  UNL1        0.1037
      5 N         138.6779  139.3894  165.6453 N.3     1  UNL1       -0.2647
      6 C         137.9600  140.4666  164.8874 C.3     1  UNL1        0.1037
      7 C         137.9904  140.4761  163.3878 C.3     1  UNL1        0.1470
      8 C         138.0209  140.4857  161.8881 C.3     1  UNL1        0.1035
      9 O         138.7083  139.3990  164.1456 O.3     1  UNL1       -0.3530
     10 C         138.7996  139.4277  159.6466 C.3     1  UNL1        0.0737
     11 C         139.6812  140.4000  158.9206 C.3     1  UNL1        0.0362
     12 C         141.0385  140.7333  159.4654 C.3     1  UNL1        0.0929
     13 N         141.1640  141.5086  160.7433 N.3     1  UNL1       -0.1792
     14 H         141.1020  142.4962  160.4959 H       1  UNL1        0.1488
     15 S         142.3865  141.3524  161.5983 S.O2    1  UNL1        0.0642
     16 O         141.5421  141.4879  162.8305 O.2     1  UNL1       -0.1529
     17 O         143.2310  141.2169  160.3660 O.2     1  UNL1       -0.1529
     18 C         144.3701  143.7561  162.5667 C.3     1  UNL1        0.0571
     19 C         144.5208  142.3010  162.8983 C.ar    1  UNL1        0.1192
     20 N         145.6098  141.6954  163.7334 N.ar    1  UNL1       -0.0803
     21 O         145.3711  140.2161  163.8044 O.2     1  UNL1       -0.3567
     22 C         144.1347  139.9077  163.0132 C.ar    1  UNL1        0.1729
     23 C         143.5298  138.5491  162.8165 C.3     1  UNL1        0.0768
     24 C         143.6091  141.1962  162.4533 C.ar    1  UNL1        0.1712
     25 C         138.6475  139.3798  167.1449 C.3     1  UNL1        0.0993
     26 C         139.5697  140.2740  167.9196 C.ar    1  UNL1       -0.0061
     27 C         140.5381  141.1612  167.1949 C.ar    1  UNL1       -0.0022
     28 C         141.4603  142.0553  167.9694 C.ar    1  UNL1        0.0100
     29 C         141.4141  142.0623  169.4686 C.ar    1  UNL1        0.0684
     30 C         140.4457  141.1752  170.1933 C.ar    1  UNL1        0.0100
     31 C         139.5235  140.2810  169.4188 C.ar    1  UNL1       -0.0022
     32 C         142.3364  142.9565  170.2433 C.1     1  UNL1        0.1004
     33 N         143.2585  143.8507  171.0178 N.1     1  UNL1       -0.1908
@<TRIPOS>BOND
     1    18    19    1
     2    19    20   ar
     3    20    21   ar
     4    21    22   ar
     5    22    23    1
     6    22    24   ar
     7    24    15    1
     8    15    16    2
     9    15    17    2
    10    15    13    1
    11    13    12    1
    12    12    11    1
    13    11    10    1
    14    10     1    1
    15     1     2    1
    16     2     3    1
    17     3     4    1
    18     4     5    1
    19     5    25    1
    20    25    26    1
    21    26    27   ar
    22    27    28   ar
    23    28    29   ar
    24    29    32    1
    25    32    33    3
    26    29    30   ar
    27    30    31   ar
    28     5     6    1
    29     6     7    1
    30     7     8    1
    31     7     9    1
    32    24    19   ar
    33     8     1    1
    34     9     3    1
    35    31    26   ar
    36    13    14    1
@<TRIPOS>MOLECULE
*****
 33 36 0 0 0
SMALL
GASTEIGER

@<TRIPOS>ATOM
      1 N         142.7750  138.6456  160.9895 N.3     1  UNL1       -0.2685
      2 C         141.7643  137.9299  161.8357 C.3     1  UNL1        0.1035
      3 C         141.9095  137.9182  163.3286 C.3     1  UNL1        0.1470
      4 C         142.0546  137.9066  164.8216 C.3     1  UNL1        0.1037
      5 N         143.2105  138.6106  165.4682 N.3     1  UNL1       -0.2647
      6 C         144.2213  139.3263  164.6219 C.3     1  UNL1        0.1037
      7 C         144.0761  139.3380  163.1290 C.3     1  UNL1        0.1470
      8 C         143.9310  139.3496  161.6362 C.3     1  UNL1        0.1035
      9 O         143.0654  138.6223  163.9753 O.3     1  UNL1       -0.3530
     10 C         142.6299  138.6572  159.4965 C.3     1  UNL1        0.0737
     11 C         141.6032  139.5388  158.8497 C.3     1  UNL1        0.0362
     12 C         141.3895  140.9356  159.3532 C.3     1  UNL1        0.0929
     13 N         140.9291  141.1625  160.7626 N.3     1  UNL1       -0.1792
     14 H         139.9135  141.2520  160.7298 H       1  UNL1        0.1488
     15 S         141.4425  142.3386  161.5392 S.O2    1  UNL1        0.0642
     16 O         141.5297  143.1370  160.2723 O.2     1  UNL1       -0.1529
     17 O         141.3553  141.5403  162.8060 O.2     1  UNL1       -0.1529
     18 C         144.5782  143.0375  162.1127 C.3     1  UNL1        0.0571
     19 C         143.3973  143.8360  162.5794 C.ar    1  UNL1        0.1192
     20 N         143.4504  145.0959  163.3916 N.ar    1  UNL1       -0.0803
     21 O         142.0418  145.5534  163.6301 O.2     1  UNL1       -0.3567
     22 C         141.1183  144.5762  162.9651 C.ar    1  UNL1        0.1729
     23 C         139.6200  144.6478  162.9519 C.3     1  UNL1        0.0768
     24 C         141.9560  143.5148  162.3158 C.ar    1  UNL1        0.1712
     25 C         143.3557  138.5990  166.9611 C.3     1  UNL1        0.0993
     26 C         142.5411  139.5375  167.8012 C.ar    1  UNL1       -0.0061
     27 C         141.9426  140.7676  167.1859 C.ar    1  UNL1       -0.0022
     28 C         141.1280  141.7061  168.0259 C.ar    1  UNL1        0.0100
     29 C         140.9120  141.4144  169.4813 C.ar    1  UNL1        0.0684
     30 C         141.5104  140.1843  170.0966 C.ar    1  UNL1        0.0100
     31 C         142.3250  139.2458  169.2566 C.ar    1  UNL1       -0.0022
     32 C         140.0974  142.3529  170.3214 C.1     1  UNL1        0.1004
     33 N         139.2829  143.2914  171.1615 N.1     1  UNL1       -0.1908
@<TRIPOS>BOND
     1    18    19    1
     2    19    20   ar
     3    20    21   ar
     4    21    22   ar
     5    22    23    1
     6    22    24   ar
     7    24    15    1
     8    15    16    2
     9    15    17    2
    10    15    13    1
    11    13    12    1
    12    12    11    1
    13    11    10    1
    14    10     1    1
    15     1     2    1
    16     2     3    1
    17     3     4    1
    18     4     5    1
    19     5    25    1
    20    25    26    1
    21    26    27   ar
    22    27    28   ar
    23    28    29   ar
    24    29    32    1
    25    32    33    3
    26    29    30   ar
    27    30    31   ar
    28     5     6    1
    29     6     7    1
    30     7     8    1
    31     7     9    1
    32    24    19   ar
    33     8     1    1
    34     9     3    1
    35    31    26   ar
    36    13    14    1
