@<TRIPOS>MOLECULE
*****
 32 36 0 0 0
SMALL
GASTEIGER

@<TRIPOS>ATOM
      1 C         140.6382  141.2342  162.5947 C.3     1  UNL1        0.2167
      2 N         141.4878  140.4366  163.5393 N.am    1  UNL1       -0.1358
      3 C         142.5259  139.4963  163.0025 C.2     1  UNL1        0.4243
      4 N         143.3755  138.6987  163.9469 N.2     1  UNL1        0.0275
      5 C         143.1870  138.8414  165.4282 C.2     1  UNL1        0.3991
      6 N         143.8708  138.1912  166.5942 N.2     1  UNL1        0.0826
      7 N         143.2553  138.7297  167.8517 N.2     1  UNL1       -0.0375
      8 C         142.1911  139.7126  167.4627 C.2     1  UNL1        0.1282
      9 C         142.1489  139.7817  165.9650 C.3     1  UNL1        0.2504
     10 C         141.2993  140.5793  165.0205 C.2     1  UNL1        0.3055
     11 O         140.2611  141.5196  165.5573 O.2     1  UNL1       -0.2554
     12 N         142.7145  139.3536  161.5212 N.pl3   1  UNL1       -0.1900
     13 C         143.4590  140.4065  160.7550 C.3     1  UNL1        0.1682
     14 C         143.6475  140.2638  159.2738 C.3     1  UNL1        0.0444
     15 C         143.0914  139.0682  158.5587 C.3     1  UNL1        0.0491
     16 C         142.3469  138.0153  159.3249 C.3     1  UNL1        0.0444
     17 C         142.1584  138.1580  160.8061 C.3     1  UNL1        0.1682
     18 C         142.5947  137.9341  157.7119 C.3     1  UNL1        0.1436
     19 O         143.0060  138.1996  156.2940 O.3     1  UNL1       -0.3523
     20 C         143.7570  139.4978  156.2645 C.3     1  UNL1        0.1576
     21 C         143.8097  140.0346  157.6641 C.3     1  UNL1        0.0833
     22 N         144.4656  141.3133  158.0938 N.3     1  UNL1       -0.3201
     23 H         144.3506  141.4330  159.1003 H       1  UNL1        0.1189
     24 H         144.0328  142.0979  157.6065 H       1  UNL1        0.1189
     25 C         141.3217  140.4900  168.4061 C.ar    1  UNL1        0.0298
     26 C         140.0468  139.8888  168.9190 C.ar    1  UNL1        0.0022
     27 C         139.1773  140.6662  169.8623 C.ar    1  UNL1        0.0010
     28 C         139.5829  142.0447  170.2928 C.ar    1  UNL1        0.0122
     29 C         140.8578  142.6458  169.7799 C.ar    1  UNL1        0.0682
     30 CL        141.2634  144.0243  170.2102 Cl      1  UNL1       -0.0814
     31 C         141.7272  141.8685  168.8365 C.ar    1  UNL1        0.0695
     32 CL        143.0022  142.4697  168.3236 Cl      1  UNL1       -0.0813
@<TRIPOS>BOND
     1     1     2    1
     2     2     3    1
     3     3    12    1
     4    12    13    1
     5    13    14    1
     6    14    15    1
     7    15    16    1
     8    16    17    1
     9    15    18    1
    10    18    19    1
    11    19    20    1
    12    20    21    1
    13    21    22    1
    14     3     4    2
    15     4     5    1
    16     5     6    2
    17     6     7    1
    18     7     8    2
    19     8    25    1
    20    25    26   ar
    21    26    27   ar
    22    27    28   ar
    23    28    29   ar
    24    29    30    1
    25    29    31   ar
    26    31    32    1
    27     8     9    1
    28     9    10    1
    29    10    11    2
    30    10     2   am
    31    17    12    1
    32     9     5    1
    33    21    15    1
    34    31    25   ar
    35    22    23    1
    36    22    24    1
@<TRIPOS>MOLECULE
*****
 32 36 0 0 0
SMALL
GASTEIGER

@<TRIPOS>ATOM
      1 C         139.3745  144.7726  163.0200 C.3     1  UNL1        0.2167
      2 N         140.2648  143.5914  163.2694 N.am    1  UNL1       -0.1358
      3 C         140.9750  142.9324  162.1243 C.2     1  UNL1        0.4243
      4 N         141.8653  141.7513  162.3737 N.2     1  UNL1        0.0275
      5 C         142.0454  141.2291  163.7683 C.2     1  UNL1        0.3991
      6 N         142.8526  140.0902  164.3171 N.2     1  UNL1        0.0826
      7 N         142.6413  140.0453  165.8015 N.2     1  UNL1       -0.0375
      8 C         141.7035  141.1565  166.1700 C.2     1  UNL1        0.1282
      9 C         141.3353  141.8881  164.9135 C.3     1  UNL1        0.2504
     10 C         140.4449  143.0693  164.6640 C.2     1  UNL1        0.3055
     11 O         139.7348  143.7283  165.8092 O.2     1  UNL1       -0.2554
     12 N         140.7948  143.4546  160.7296 N.pl3   1  UNL1       -0.1900
     13 C         141.7250  144.5030  160.1954 C.3     1  UNL1        0.1682
     14 C         141.5448  145.0252  158.8008 C.3     1  UNL1        0.0444
     15 C         140.4344  144.4989  157.9405 C.3     1  UNL1        0.0491
     16 C         139.5042  143.4505  158.4748 C.3     1  UNL1        0.0444
     17 C         139.6844  142.9284  159.8694 C.3     1  UNL1        0.1682
     18 C         139.3753  144.0704  156.9686 C.3     1  UNL1        0.1436
     19 O         139.5680  144.8479  155.7003 O.3     1  UNL1       -0.3523
     20 C         140.7463  145.7571  155.8885 C.3     1  UNL1        0.1576
     21 C         141.2817  145.5414  157.2730 C.3     1  UNL1        0.0833
     22 N         142.4578  146.2446  157.8830 N.3     1  UNL1       -0.3201
     23 H         142.6009  145.9055  158.8342 H       1  UNL1        0.1189
     24 H         142.2806  147.2489  157.9030 H       1  UNL1        0.1189
     25 C         141.2191  141.4793  167.5525 C.ar    1  UNL1        0.0298
     26 C         141.9007  142.5472  168.3557 C.ar    1  UNL1        0.0022
     27 C         141.4164  142.8700  169.7381 C.ar    1  UNL1        0.0010
     28 C         140.2505  142.1250  170.3174 C.ar    1  UNL1        0.0122
     29 C         139.5689  141.0571  169.5143 C.ar    1  UNL1        0.0682
     30 CL        138.4030  140.3121  170.0935 Cl      1  UNL1       -0.0814
     31 C         140.0532  140.7343  168.1318 C.ar    1  UNL1        0.0695
     32 CL        139.3717  139.6664  167.3286 Cl      1  UNL1       -0.0813
@<TRIPOS>BOND
     1     1     2    1
     2     2     3    1
     3     3    12    1
     4    12    13    1
     5    13    14    1
     6    14    15    1
     7    15    16    1
     8    16    17    1
     9    15    18    1
    10    18    19    1
    11    19    20    1
    12    20    21    1
    13    21    22    1
    14     3     4    2
    15     4     5    1
    16     5     6    2
    17     6     7    1
    18     7     8    2
    19     8    25    1
    20    25    26   ar
    21    26    27   ar
    22    27    28   ar
    23    28    29   ar
    24    29    30    1
    25    29    31   ar
    26    31    32    1
    27     8     9    1
    28     9    10    1
    29    10    11    2
    30    10     2   am
    31    17    12    1
    32     9     5    1
    33    21    15    1
    34    31    25   ar
    35    22    23    1
    36    22    24    1
@<TRIPOS>MOLECULE
*****
 32 36 0 0 0
SMALL
GASTEIGER

@<TRIPOS>ATOM
      1 C         141.2794  144.3847  163.9911 C.3     1  UNL1        0.2167
      2 N         140.9511  142.9231  163.9133 N.am    1  UNL1       -0.1358
      3 C         140.7874  142.2613  162.5771 C.2     1  UNL1        0.4243
      4 N         140.4591  140.7998  162.4992 N.2     1  UNL1        0.0275
      5 C         140.2944  140.0000  163.7575 C.2     1  UNL1        0.3991
      6 N         139.9731  138.5539  163.9927 N.2     1  UNL1        0.0826
      7 N         139.9382  138.3218  165.4742 N.2     1  UNL1       -0.0375
      8 C         140.2379  139.6246  166.1546 C.2     1  UNL1        0.1282
      9 C         140.4580  140.6617  165.0936 C.3     1  UNL1        0.2504
     10 C         140.7864  142.1233  165.1715 C.2     1  UNL1        0.3055
     11 O         140.9501  142.7850  166.5077 O.2     1  UNL1       -0.2554
     12 N         140.9521  143.0612  161.3188 N.pl3   1  UNL1       -0.1900
     13 C         142.1617  142.8597  160.4550 C.3     1  UNL1        0.1682
     14 C         142.3263  143.6595  159.1968 C.3     1  UNL1        0.0444
     15 C         141.2814  144.6608  158.8024 C.3     1  UNL1        0.0491
     16 C         140.0718  144.8623  159.6663 C.3     1  UNL1        0.0444
     17 C         139.9072  144.0625  160.9245 C.3     1  UNL1        0.1682
     18 C         140.3251  145.6928  158.2822 C.3     1  UNL1        0.1436
     19 O         140.8840  146.2389  157.0017 O.3     1  UNL1       -0.3523
     20 C         142.1856  145.5445  156.7306 C.3     1  UNL1        0.1576
     21 C         142.4313  144.5692  157.8435 C.3     1  UNL1        0.0833
     22 N         143.6182  143.6616  157.9745 N.3     1  UNL1       -0.3201
     23 H         143.5290  143.1058  158.8251 H       1  UNL1        0.1189
     24 H         144.4701  144.2206  158.0214 H       1  UNL1        0.1189
     25 C         140.3056  139.8504  167.6360 C.ar    1  UNL1        0.0298
     26 C         139.0523  140.1358  168.4091 C.ar    1  UNL1        0.0022
     27 C         139.1198  140.3616  169.8905 C.ar    1  UNL1        0.0010
     28 C         140.4408  140.3021  170.5987 C.ar    1  UNL1        0.0122
     29 C         141.6941  140.0167  169.8256 C.ar    1  UNL1        0.0682
     30 CL        143.0150  139.9572  170.5337 Cl      1  UNL1       -0.0814
     31 C         141.6265  139.7909  168.3442 C.ar    1  UNL1        0.0695
     32 CL        142.8798  139.5055  167.5711 Cl      1  UNL1       -0.0813
@<TRIPOS>BOND
     1     1     2    1
     2     2     3    1
     3     3    12    1
     4    12    13    1
     5    13    14    1
     6    14    15    1
     7    15    16    1
     8    16    17    1
     9    15    18    1
    10    18    19    1
    11    19    20    1
    12    20    21    1
    13    21    22    1
    14     3     4    2
    15     4     5    1
    16     5     6    2
    17     6     7    1
    18     7     8    2
    19     8    25    1
    20    25    26   ar
    21    26    27   ar
    22    27    28   ar
    23    28    29   ar
    24    29    30    1
    25    29    31   ar
    26    31    32    1
    27     8     9    1
    28     9    10    1
    29    10    11    2
    30    10     2   am
    31    17    12    1
    32     9     5    1
    33    21    15    1
    34    31    25   ar
    35    22    23    1
    36    22    24    1
@<TRIPOS>MOLECULE
*****
 32 36 0 0 0
SMALL
GASTEIGER

@<TRIPOS>ATOM
      1 C         141.1126  142.3790  162.6080 C.3     1  UNL1        0.2167
      2 N         140.4191  141.4708  163.5798 N.am    1  UNL1       -0.1358
      3 C         139.5442  140.3613  163.0762 C.2     1  UNL1        0.4243
      4 N         138.8507  139.4532  164.0480 N.2     1  UNL1        0.0275
      5 C         139.0321  139.6544  165.5233 C.2     1  UNL1        0.3991
      6 N         138.4806  138.9235  166.7113 N.2     1  UNL1        0.0826
      7 N         139.0146  139.5812  167.9491 N.2     1  UNL1       -0.0375
      8 C         139.8962  140.7186  167.5261 C.2     1  UNL1        0.1282
      9 C         139.9070  140.7639  166.0269 C.3     1  UNL1        0.2504
     10 C         140.6005  141.6721  165.0551 C.2     1  UNL1        0.3055
     11 O         141.4755  142.7816  165.5587 O.2     1  UNL1       -0.2554
     12 N         139.3628  140.1600  161.6009 N.pl3   1  UNL1       -0.1900
     13 C         140.2956  139.2597  160.8465 C.3     1  UNL1        0.1682
     14 C         140.1141  139.0585  159.3712 C.3     1  UNL1        0.0444
     15 C         138.9999  139.7576  158.6503 C.3     1  UNL1        0.0491
     16 C         138.0670  140.6579  159.4047 C.3     1  UNL1        0.0444
     17 C         138.2485  140.8591  160.8800 C.3     1  UNL1        0.1682
     18 C         137.9370  140.3863  157.7988 C.3     1  UNL1        0.1436
     19 O         138.1297  139.9096  156.3896 O.3     1  UNL1       -0.3523
     20 C         139.3117  138.9861  156.3702 C.3     1  UNL1        0.1576
     21 C         139.8494  138.8922  157.7674 C.3     1  UNL1        0.0833
     22 N         141.0295  138.0762  158.2049 N.3     1  UNL1       -0.3201
     23 H         141.1735  138.1969  159.2074 H       1  UNL1        0.1189
     24 H         141.8616  138.3851  157.7023 H       1  UNL1        0.1189
     25 C         140.6370  141.6477  168.4417 C.ar    1  UNL1        0.0298
     26 C         139.9261  142.8137  169.0623 C.ar    1  UNL1        0.0022
     27 C         140.6668  143.7427  169.9778 C.ar    1  UNL1        0.0010
     28 C         142.1183  143.5058  170.2728 C.ar    1  UNL1        0.0122
     29 C         142.8291  142.3398  169.6522 C.ar    1  UNL1        0.0682
     30 CL        144.2806  142.1028  169.9472 Cl      1  UNL1       -0.0814
     31 C         142.0885  141.4107  168.7367 C.ar    1  UNL1        0.0695
     32 CL        142.7993  140.2447  168.1161 Cl      1  UNL1       -0.0813
@<TRIPOS>BOND
     1     1     2    1
     2     2     3    1
     3     3    12    1
     4    12    13    1
     5    13    14    1
     6    14    15    1
     7    15    16    1
     8    16    17    1
     9    15    18    1
    10    18    19    1
    11    19    20    1
    12    20    21    1
    13    21    22    1
    14     3     4    2
    15     4     5    1
    16     5     6    2
    17     6     7    1
    18     7     8    2
    19     8    25    1
    20    25    26   ar
    21    26    27   ar
    22    27    28   ar
    23    28    29   ar
    24    29    30    1
    25    29    31   ar
    26    31    32    1
    27     8     9    1
    28     9    10    1
    29    10    11    2
    30    10     2   am
    31    17    12    1
    32     9     5    1
    33    21    15    1
    34    31    25   ar
    35    22    23    1
    36    22    24    1
@<TRIPOS>MOLECULE
*****
 32 36 0 0 0
SMALL
GASTEIGER

@<TRIPOS>ATOM
      1 C         143.9577  139.6671  161.6262 C.3     1  UNL1        0.2167
      2 N         142.8797  140.7077  161.6990 N.am    1  UNL1       -0.1358
      3 C         142.6784  141.6602  160.5579 C.2     1  UNL1        0.4243
      4 N         141.6005  142.7008  160.6307 N.2     1  UNL1        0.0275
      5 C         140.7238  142.7889  161.8447 C.2     1  UNL1        0.3991
      6 N         139.5884  143.7029  162.1986 N.2     1  UNL1        0.0826
      7 N         139.0880  143.3153  163.5585 N.2     1  UNL1       -0.0375
      8 C         139.9141  142.1617  164.0450 C.2     1  UNL1        0.1282
      9 C         140.9251  141.8364  162.9858 C.3     1  UNL1        0.2504
     10 C         142.0031  140.7958  162.9130 C.2     1  UNL1        0.3055
     11 O         142.2043  139.8433  164.0541 O.2     1  UNL1       -0.2554
     12 N         143.5551  141.5722  159.3439 N.pl3   1  UNL1       -0.1900
     13 C         144.7408  142.4807  159.2075 C.3     1  UNL1        0.1682
     14 C         145.6174  142.3925  157.9936 C.3     1  UNL1        0.0444
     15 C         145.3083  141.3959  156.9160 C.3     1  UNL1        0.0491
     16 C         144.1226  140.4874  157.0523 C.3     1  UNL1        0.0444
     17 C         143.2460  140.5755  158.2663 C.3     1  UNL1        0.1682
     18 C         145.1254  140.4543  155.7628 C.3     1  UNL1        0.1436
     19 O         146.2259  140.7104  154.7761 O.3     1  UNL1       -0.3523
     20 C         147.0890  141.8103  155.3195 C.3     1  UNL1        0.1576
     21 C         146.5219  142.2340  156.6420 C.3     1  UNL1        0.0833
     22 N         147.0718  143.3073  157.5340 N.3     1  UNL1       -0.3201
     23 H         146.4909  143.3864  158.3687 H       1  UNL1        0.1189
     24 H         147.0726  144.1968  157.0348 H       1  UNL1        0.1189
     25 C         139.7568  141.4572  165.3599 C.ar    1  UNL1        0.0298
     26 C         140.5070  141.9420  166.5649 C.ar    1  UNL1        0.0022
     27 C         140.3498  141.2376  167.8799 C.ar    1  UNL1        0.0010
     28 C         139.4422  140.0484  167.9898 C.ar    1  UNL1        0.0122
     29 C         138.6919  139.5636  166.7848 C.ar    1  UNL1        0.0682
     30 CL        137.7844  138.3744  166.8946 Cl      1  UNL1       -0.0814
     31 C         138.8492  140.2680  165.4698 C.ar    1  UNL1        0.0695
     32 CL        138.0989  139.7832  164.2648 Cl      1  UNL1       -0.0813
@<TRIPOS>BOND
     1     1     2    1
     2     2     3    1
     3     3    12    1
     4    12    13    1
     5    13    14    1
     6    14    15    1
     7    15    16    1
     8    16    17    1
     9    15    18    1
    10    18    19    1
    11    19    20    1
    12    20    21    1
    13    21    22    1
    14     3     4    2
    15     4     5    1
    16     5     6    2
    17     6     7    1
    18     7     8    2
    19     8    25    1
    20    25    26   ar
    21    26    27   ar
    22    27    28   ar
    23    28    29   ar
    24    29    30    1
    25    29    31   ar
    26    31    32    1
    27     8     9    1
    28     9    10    1
    29    10    11    2
    30    10     2   am
    31    17    12    1
    32     9     5    1
    33    21    15    1
    34    31    25   ar
    35    22    23    1
    36    22    24    1
@<TRIPOS>MOLECULE
*****
 32 36 0 0 0
SMALL
GASTEIGER

@<TRIPOS>ATOM
      1 C         142.7603  142.3918  164.7311 C.3     1  UNL1        0.2167
      2 N         141.4458  142.3914  164.0085 N.am    1  UNL1       -0.1358
      3 C         140.1713  142.1792  164.7705 C.2     1  UNL1        0.4243
      4 N         138.8568  142.1787  164.0480 N.2     1  UNL1        0.0275
      5 C         138.8168  142.3904  162.5635 C.2     1  UNL1        0.3991
      6 N         137.6792  142.4409  161.5871 N.2     1  UNL1        0.0826
      7 N         138.2507  142.6842  160.2218 N.2     1  UNL1       -0.0375
      8 C         139.7414  142.7842  160.3543 C.2     1  UNL1        0.1282
      9 C         140.0913  142.6026  161.8015 C.3     1  UNL1        0.2504
     10 C         141.4058  142.6031  162.5241 C.2     1  UNL1        0.3055
     11 O         142.6804  142.8153  161.7622 O.2     1  UNL1       -0.2554
     12 N         140.2113  141.9675  166.2550 N.pl3   1  UNL1       -0.1900
     13 C         140.2770  143.1470  167.1793 C.3     1  UNL1        0.1682
     14 C         140.3170  142.9353  168.6637 C.3     1  UNL1        0.0444
     15 C         140.2912  141.5440  169.2238 C.3     1  UNL1        0.0491
     16 C         140.2255  140.3645  168.2995 C.3     1  UNL1        0.0444
     17 C         140.1855  140.5762  166.8151 C.3     1  UNL1        0.1682
     18 C         140.2721  140.2187  169.9262 C.3     1  UNL1        0.1436
     19 O         140.3264  140.4760  171.4030 O.3     1  UNL1       -0.3523
     20 C         140.3792  141.9603  171.6133 C.3     1  UNL1        0.1576
     21 C         140.3575  142.6203  170.2665 C.3     1  UNL1        0.0833
     22 N         140.3953  144.0973  170.0077 N.3     1  UNL1       -0.3201
     23 H         140.3690  144.2671  169.0023 H       1  UNL1        0.1189
     24 H         141.2533  144.4887  170.3963 H       1  UNL1        0.1189
     25 C         140.7119  143.0236  159.2359 C.ar    1  UNL1        0.0298
     26 C         141.3776  141.8623  158.5590 C.ar    1  UNL1        0.0022
     27 C         142.3481  142.1017  157.4406 C.ar    1  UNL1        0.0010
     28 C         142.6529  143.5024  156.9990 C.ar    1  UNL1        0.0122
     29 C         141.9872  144.6638  157.6759 C.ar    1  UNL1        0.0682
     30 CL        142.2920  146.0645  157.2344 Cl      1  UNL1       -0.0814
     31 C         141.0168  144.4244  158.7943 C.ar    1  UNL1        0.0695
     32 CL        140.3511  145.5857  159.4712 Cl      1  UNL1       -0.0813
@<TRIPOS>BOND
     1     1     2    1
     2     2     3    1
     3     3    12    1
     4    12    13    1
     5    13    14    1
     6    14    15    1
     7    15    16    1
     8    16    17    1
     9    15    18    1
    10    18    19    1
    11    19    20    1
    12    20    21    1
    13    21    22    1
    14     3     4    2
    15     4     5    1
    16     5     6    2
    17     6     7    1
    18     7     8    2
    19     8    25    1
    20    25    26   ar
    21    26    27   ar
    22    27    28   ar
    23    28    29   ar
    24    29    30    1
    25    29    31   ar
    26    31    32    1
    27     8     9    1
    28     9    10    1
    29    10    11    2
    30    10     2   am
    31    17    12    1
    32     9     5    1
    33    21    15    1
    34    31    25   ar
    35    22    23    1
    36    22    24    1
@<TRIPOS>MOLECULE
*****
 32 36 0 0 0
SMALL
GASTEIGER

@<TRIPOS>ATOM
      1 C         140.9486  137.4818  164.5349 C.3     1  UNL1        0.2167
      2 N         141.0425  138.7317  163.7109 N.am    1  UNL1       -0.1358
      3 C         141.0044  140.0746  164.3782 C.2     1  UNL1        0.4243
      4 N         141.0983  141.3245  163.5542 N.2     1  UNL1        0.0275
      5 C         141.2305  141.2315  162.0629 C.2     1  UNL1        0.3991
      6 N         141.3428  142.2817  160.9979 N.2     1  UNL1        0.0826
      7 N         141.4504  141.5880  159.6723 N.2     1  UNL1       -0.0375
      8 C         141.4045  140.1090  159.9182 C.2     1  UNL1        0.1282
      9 C         141.2686  139.8887  161.3956 C.3     1  UNL1        0.2504
     10 C         141.1746  138.6388  162.2196 C.2     1  UNL1        0.3055
     11 O         141.2128  137.2959  161.5523 O.2     1  UNL1       -0.2554
     12 N         140.8723  140.1675  165.8695 N.pl3   1  UNL1       -0.1900
     13 C         142.0962  140.3220  166.7227 C.3     1  UNL1        0.1682
     14 C         141.9641  140.4150  168.2139 C.3     1  UNL1        0.0444
     15 C         140.6079  140.3534  168.8520 C.3     1  UNL1        0.0491
     16 C         139.3840  140.1989  167.9988 C.3     1  UNL1        0.0444
     17 C         139.5161  140.1059  166.5075 C.3     1  UNL1        0.1682
     18 C         139.3251  140.3071  169.6280 C.3     1  UNL1        0.1436
     19 O         139.6597  140.4340  171.0848 O.3     1  UNL1       -0.3523
     20 C         141.1494  140.5588  171.2090 C.3     1  UNL1        0.1576
     21 C         141.7354  140.5089  169.8291 C.3     1  UNL1        0.0833
     22 N         143.1929  140.5989  169.4864 N.3     1  UNL1       -0.3201
     23 H         143.3087  140.5379  168.4748 H       1  UNL1        0.1189
     24 H         143.6952  139.8316  169.9330 H       1  UNL1        0.1189
     25 C         141.4812  139.0383  158.8704 C.ar    1  UNL1        0.0298
     26 C         142.7589  138.2798  158.6653 C.ar    1  UNL1        0.0022
     27 C         142.8356  137.2091  157.6176 C.ar    1  UNL1        0.0010
     28 C         141.6346  136.8969  156.7749 C.ar    1  UNL1        0.0122
     29 C         140.3568  137.6554  156.9800 C.ar    1  UNL1        0.0682
     30 CL        139.1558  137.3432  156.1375 Cl      1  UNL1       -0.0814
     31 C         140.2801  138.7261  158.0278 C.ar    1  UNL1        0.0695
     32 CL        139.0024  139.4845  158.2329 Cl      1  UNL1       -0.0813
@<TRIPOS>BOND
     1     1     2    1
     2     2     3    1
     3     3    12    1
     4    12    13    1
     5    13    14    1
     6    14    15    1
     7    15    16    1
     8    16    17    1
     9    15    18    1
    10    18    19    1
    11    19    20    1
    12    20    21    1
    13    21    22    1
    14     3     4    2
    15     4     5    1
    16     5     6    2
    17     6     7    1
    18     7     8    2
    19     8    25    1
    20    25    26   ar
    21    26    27   ar
    22    27    28   ar
    23    28    29   ar
    24    29    30    1
    25    29    31   ar
    26    31    32    1
    27     8     9    1
    28     9    10    1
    29    10    11    2
    30    10     2   am
    31    17    12    1
    32     9     5    1
    33    21    15    1
    34    31    25   ar
    35    22    23    1
    36    22    24    1
@<TRIPOS>MOLECULE
*****
 32 36 0 0 0
SMALL
GASTEIGER

@<TRIPOS>ATOM
      1 C         142.3390  140.9033  163.0921 C.3     1  UNL1        0.2167
      2 N         141.5778  142.1905  162.9737 N.am    1  UNL1       -0.1358
      3 C         141.0108  142.8420  164.2000 C.2     1  UNL1        0.4243
      4 N         140.2497  144.1291  164.0817 N.2     1  UNL1        0.0275
      5 C         140.0555  144.7647  162.7369 C.2     1  UNL1        0.3991
      6 N         139.3558  146.0217  162.3124 N.2     1  UNL1        0.0826
      7 N         139.4904  146.1471  160.8238 N.2     1  UNL1       -0.0375
      8 C         140.2733  144.9675  160.3282 C.2     1  UNL1        0.1282
      9 C         140.6225  144.1132  161.5105 C.3     1  UNL1        0.2504
     10 C         141.3837  142.8260  161.6289 C.2     1  UNL1        0.3055
     11 O         141.9507  142.1744  160.4026 O.2     1  UNL1       -0.2554
     12 N         141.2049  142.2065  165.5448 N.pl3   1  UNL1       -0.1900
     13 C         140.1070  141.3838  166.1511 C.3     1  UNL1        0.1682
     14 C         140.3012  140.7482  167.4958 C.3     1  UNL1        0.0444
     15 C         141.5933  140.9354  168.2343 C.3     1  UNL1        0.0491
     16 C         142.6913  141.7581  167.6280 C.3     1  UNL1        0.0444
     17 C         142.4971  142.3936  166.2833 C.3     1  UNL1        0.1682
     18 C         142.8238  141.0335  169.0865 C.3     1  UNL1        0.1436
     19 O         142.5821  140.2488  170.3419 O.3     1  UNL1       -0.3523
     20 C         141.2021  139.6658  170.2656 C.3     1  UNL1        0.1576
     21 C         140.5910  140.0901  168.9630 C.3     1  UNL1        0.0833
     22 N         139.2187  139.7320  168.4749 N.3     1  UNL1       -0.3201
     23 H         139.0626  140.1539  167.5594 H       1  UNL1        0.1189
     24 H         138.5219  140.0807  169.1332 H       1  UNL1        0.1189
     25 C         140.6421  144.6909  158.9007 C.ar    1  UNL1        0.0298
     26 C         141.7783  145.4334  158.2624 C.ar    1  UNL1        0.0022
     27 C         142.1472  145.1569  156.8350 C.ar    1  UNL1        0.0010
     28 C         141.3798  144.1378  156.0459 C.ar    1  UNL1        0.0122
     29 C         140.2435  143.3953  156.6843 C.ar    1  UNL1        0.0682
     30 CL        139.4761  142.3762  155.8954 Cl      1  UNL1       -0.0814
     31 C         139.8747  143.6718  158.1117 C.ar    1  UNL1        0.0695
     32 CL        138.7384  142.9293  158.7501 Cl      1  UNL1       -0.0813
@<TRIPOS>BOND
     1     1     2    1
     2     2     3    1
     3     3    12    1
     4    12    13    1
     5    13    14    1
     6    14    15    1
     7    15    16    1
     8    16    17    1
     9    15    18    1
    10    18    19    1
    11    19    20    1
    12    20    21    1
    13    21    22    1
    14     3     4    2
    15     4     5    1
    16     5     6    2
    17     6     7    1
    18     7     8    2
    19     8    25    1
    20    25    26   ar
    21    26    27   ar
    22    27    28   ar
    23    28    29   ar
    24    29    30    1
    25    29    31   ar
    26    31    32    1
    27     8     9    1
    28     9    10    1
    29    10    11    2
    30    10     2   am
    31    17    12    1
    32     9     5    1
    33    21    15    1
    34    31    25   ar
    35    22    23    1
    36    22    24    1
@<TRIPOS>MOLECULE
*****
 32 36 0 0 0
SMALL
GASTEIGER

@<TRIPOS>ATOM
      1 C         138.0485  143.3882  162.6385 C.3     1  UNL1        0.2167
      2 N         139.1952  142.4542  162.8891 N.am    1  UNL1       -0.1358
      3 C         139.8822  141.7838  161.7364 C.2     1  UNL1        0.4243
      4 N         141.0288  140.8498  161.9869 N.2     1  UNL1        0.0275
      5 C         141.4886  140.5862  163.3902 C.2     1  UNL1        0.3991
      6 N         142.5829  139.7215  163.9421 N.2     1  UNL1        0.0826
      7 N         142.5723  139.8573  165.4359 N.2     1  UNL1       -0.0375
      8 C         141.4714  140.8061  165.8072 C.2     1  UNL1        0.1282
      9 C         140.8017  141.2565  164.5429 C.3     1  UNL1        0.2504
     10 C         139.6549  142.1906  164.2924 C.2     1  UNL1        0.3055
     11 O         138.9680  142.8609  165.4451 O.2     1  UNL1       -0.2554
     12 N         139.4224  142.0475  160.3331 N.pl3   1  UNL1       -0.1900
     13 C         138.4250  141.1327  159.6863 C.3     1  UNL1        0.1682
     14 C         137.9653  141.3964  158.2831 C.3     1  UNL1        0.0444
     15 C         138.5029  142.5749  157.5267 C.3     1  UNL1        0.0491
     16 C         139.5003  143.4897  158.1735 C.3     1  UNL1        0.0444
     17 C         139.9600  143.2260  159.5767 C.3     1  UNL1        0.1682
     18 C         138.9497  143.7076  156.6507 C.3     1  UNL1        0.1436
     19 O         138.2385  143.5850  155.3356 O.3     1  UNL1       -0.3523
     20 C         137.3523  142.3764  155.3989 C.3     1  UNL1        0.1576
     21 C         137.5157  141.7521  156.7530 C.3     1  UNL1        0.0833
     22 N         136.8149  140.5213  157.2468 N.3     1  UNL1       -0.3201
     23 H         137.1120  140.3210  158.2018 H       1  UNL1        0.1189
     24 H         137.0497  139.7319  156.6451 H       1  UNL1        0.1189
     25 C         141.1047  141.2299  167.1986 C.ar    1  UNL1        0.0298
     26 C         141.8678  142.3315  167.8726 C.ar    1  UNL1        0.0022
     27 C         141.5013  142.7554  169.2640 C.ar    1  UNL1        0.0010
     28 C         140.3716  142.0777  169.9813 C.ar    1  UNL1        0.0122
     29 C         139.6085  140.9762  169.3073 C.ar    1  UNL1        0.0682
     30 CL        138.4788  140.2986  170.0246 Cl      1  UNL1       -0.0814
     31 C         139.9751  140.5523  167.9159 C.ar    1  UNL1        0.0695
     32 CL        139.2120  139.4508  167.2419 Cl      1  UNL1       -0.0813
@<TRIPOS>BOND
     1     1     2    1
     2     2     3    1
     3     3    12    1
     4    12    13    1
     5    13    14    1
     6    14    15    1
     7    15    16    1
     8    16    17    1
     9    15    18    1
    10    18    19    1
    11    19    20    1
    12    20    21    1
    13    21    22    1
    14     3     4    2
    15     4     5    1
    16     5     6    2
    17     6     7    1
    18     7     8    2
    19     8    25    1
    20    25    26   ar
    21    26    27   ar
    22    27    28   ar
    23    28    29   ar
    24    29    30    1
    25    29    31   ar
    26    31    32    1
    27     8     9    1
    28     9    10    1
    29    10    11    2
    30    10     2   am
    31    17    12    1
    32     9     5    1
    33    21    15    1
    34    31    25   ar
    35    22    23    1
    36    22    24    1
