@<TRIPOS>MOLECULE
*****
 33 35 0 0 0
SMALL
GASTEIGER

@<TRIPOS>ATOM
      1 O         144.6873  139.1689  163.4705 O.3     1  UNL1       -0.4102
      2 C         143.1563  141.4729  166.3160 C.ar    1  UNL1        0.0671
      3 C         143.7283  142.8073  165.9387 C.ar    1  UNL1        0.0177
      4 C         144.6200  142.9288  164.7387 C.ar    1  UNL1        0.0046
      5 C         144.9397  141.7160  163.9160 C.ar    1  UNL1        0.0378
      6 C         144.3677  140.3817  164.2932 C.ar    1  UNL1        0.1515
      7 C         143.4760  140.2601  165.4932 C.ar    1  UNL1        0.0551
      8 C         141.0123  141.8866  169.5250 C.ar    1  UNL1        0.0721
      9 C         140.7725  140.4419  169.2004 C.ar    1  UNL1        0.0250
     10 C         141.5464  140.1111  167.9588 C.ar    1  UNL1        0.0803
     11 N         142.2646  141.3514  167.5161 N.ar    1  UNL1       -0.3033
     12 C         141.9345  142.4487  168.4840 C.ar    1  UNL1        0.0846
     13 N         139.8452  144.0023  170.4798 N.am    1  UNL1       -0.3253
     14 C         140.4318  142.6374  170.6866 C.2     1  UNL1        0.2443
     15 O         140.4380  142.0233  172.0551 O.2     1  UNL1       -0.2703
     16 H         139.4643  144.4951  171.2422 H       1  UNL1        0.1453
     17 H         139.8412  144.4054  169.5816 H       1  UNL1        0.1453
     18 C         143.6448  138.5789  162.5677 C.2     1  UNL1        0.4062
     19 O         143.9434  138.3710  161.1125 O.2     1  UNL1       -0.2260
     20 N         142.3036  138.1967  163.1202 N.am    1  UNL1       -0.2704
     21 H         142.1076  138.3331  164.0753 H       1  UNL1        0.1527
     22 C         141.2610  137.6066  162.2174 C.3     1  UNL1        0.0927
     23 C         139.8343  138.0573  162.3244 C.3     1  UNL1        0.0214
     24 C         138.9977  137.6278  163.4929 C.3     1  UNL1        0.0018
     25 C         139.3993  138.0149  164.8854 C.3     1  UNL1        0.0004
     26 C         138.8067  139.2356  165.5248 C.3     1  UNL1        0.0047
     27 C         138.0404  140.2209  164.6930 C.3     1  UNL1        0.0264
     28 C         138.3816  141.6803  164.7550 C.ar    1  UNL1       -0.0222
     29 C         139.5389  142.1452  165.5883 C.ar    1  UNL1       -0.0043
     30 C         139.8801  143.6046  165.6503 C.ar    1  UNL1       -0.0003
     31 C         139.0640  144.5990  164.8789 C.ar    1  UNL1       -0.0000
     32 C         137.9066  144.1341  164.0456 C.ar    1  UNL1       -0.0003
     33 C         137.5655  142.6747  163.9836 C.ar    1  UNL1       -0.0043
@<TRIPOS>BOND
     1    13    14   am
     2    14    15    2
     3    14     8    1
     4     8     9   ar
     5     9    10   ar
     6    10    11   ar
     7    11     2    1
     8     2     3   ar
     9     3     4   ar
    10     4     5   ar
    11     5     6   ar
    12     6     1    1
    13     1    18    1
    14    18    19    2
    15    18    20   am
    16    20    22    1
    17    22    23    1
    18    23    24    1
    19    24    25    1
    20    25    26    1
    21    26    27    1
    22    27    28    1
    23    28    29   ar
    24    29    30   ar
    25    30    31   ar
    26    31    32   ar
    27    32    33   ar
    28     6     7   ar
    29    11    12   ar
    30    12     8   ar
    31     7     2   ar
    32    33    28   ar
    33    13    16    1
    34    13    17    1
    35    20    21    1
@<TRIPOS>MOLECULE
*****
 33 35 0 0 0
SMALL
GASTEIGER

@<TRIPOS>ATOM
      1 O         137.2561  141.4814  162.9972 O.3     1  UNL1       -0.4102
      2 C         139.4585  140.5741  166.1714 C.ar    1  UNL1        0.0671
      3 C         139.7340  139.1213  165.9195 C.ar    1  UNL1        0.0177
      4 C         139.1835  138.4552  164.6934 C.ar    1  UNL1        0.0046
      5 C         138.3575  139.2419  163.7193 C.ar    1  UNL1        0.0378
      6 C         138.0821  140.6947  163.9713 C.ar    1  UNL1        0.1515
      7 C         138.6326  141.3608  165.1973 C.ar    1  UNL1        0.0551
      8 C         140.8081  141.6169  169.6581 C.ar    1  UNL1        0.0721
      9 C         140.9042  142.9137  168.9104 C.ar    1  UNL1        0.0250
     10 C         140.4103  142.6809  167.5133 C.ar    1  UNL1        0.0803
     11 N         140.0090  141.2402  167.3976 N.ar    1  UNL1       -0.3033
     12 C         140.2549  140.5826  168.7231 C.ar    1  UNL1        0.0846
     13 N         142.3324  140.4718  171.4232 N.am    1  UNL1       -0.3253
     14 C         141.1970  141.3936  171.0895 C.2     1  UNL1        0.2443
     15 O         140.4506  142.0919  172.1872 O.2     1  UNL1       -0.2703
     16 H         142.5877  140.3253  172.3626 H       1  UNL1        0.1453
     17 H         142.8224  140.0135  170.7027 H       1  UNL1        0.1453
     18 C         137.8106  142.7321  162.3822 C.2     1  UNL1        0.4062
     19 O         137.8214  142.8935  160.8909 O.2     1  UNL1       -0.2260
     20 N         138.3542  143.8214  163.2584 N.am    1  UNL1       -0.2704
     21 H         138.3470  143.7156  164.2372 H       1  UNL1        0.1527
     22 C         138.9087  145.0722  162.6434 C.3     1  UNL1        0.0927
     23 C         140.3311  145.1075  162.1684 C.3     1  UNL1        0.0214
     24 C         141.3416  144.1677  162.7563 C.3     1  UNL1        0.0018
     25 C         142.8061  144.4120  162.5430 C.3     1  UNL1        0.0004
     26 C         143.6123  145.1070  163.6000 C.3     1  UNL1        0.0047
     27 C         144.1552  144.3289  164.7618 C.3     1  UNL1        0.0264
     28 C         144.1992  142.8306  164.7061 C.ar    1  UNL1       -0.0222
     29 C         145.3223  142.1393  163.9914 C.ar    1  UNL1       -0.0043
     30 C         145.3663  140.6410  163.9357 C.ar    1  UNL1       -0.0003
     31 C         144.2872  139.8339  164.5947 C.ar    1  UNL1       -0.0000
     32 C         143.1641  140.5253  165.3094 C.ar    1  UNL1       -0.0003
     33 C         143.1201  142.0236  165.3651 C.ar    1  UNL1       -0.0043
@<TRIPOS>BOND
     1    13    14   am
     2    14    15    2
     3    14     8    1
     4     8     9   ar
     5     9    10   ar
     6    10    11   ar
     7    11     2    1
     8     2     3   ar
     9     3     4   ar
    10     4     5   ar
    11     5     6   ar
    12     6     1    1
    13     1    18    1
    14    18    19    2
    15    18    20   am
    16    20    22    1
    17    22    23    1
    18    23    24    1
    19    24    25    1
    20    25    26    1
    21    26    27    1
    22    27    28    1
    23    28    29   ar
    24    29    30   ar
    25    30    31   ar
    26    31    32   ar
    27    32    33   ar
    28     6     7   ar
    29    11    12   ar
    30    12     8   ar
    31     7     2   ar
    32    33    28   ar
    33    13    16    1
    34    13    17    1
    35    20    21    1
@<TRIPOS>MOLECULE
*****
 33 35 0 0 0
SMALL
GASTEIGER

@<TRIPOS>ATOM
      1 O         142.6805  141.6544  162.0423 O.3     1  UNL1       -0.4102
      2 C         141.9166  140.6157  165.7956 C.ar    1  UNL1        0.0671
      3 C         142.1009  139.1290  165.7215 C.ar    1  UNL1        0.0177
      4 C         142.4784  138.4840  164.4209 C.ar    1  UNL1        0.0046
      5 C         142.6716  139.3258  163.1945 C.ar    1  UNL1        0.0378
      6 C         142.4873  140.8126  163.2687 C.ar    1  UNL1        0.1515
      7 C         142.1098  141.4575  164.5692 C.ar    1  UNL1        0.0551
      8 C         141.2765  141.6863  169.4712 C.ar    1  UNL1        0.0721
      9 C         140.6397  142.8204  168.7239 C.ar    1  UNL1        0.0250
     10 C         140.8020  142.5573  167.2561 C.ar    1  UNL1        0.0803
     11 N         141.5391  141.2607  167.0962 N.ar    1  UNL1       -0.3033
     12 C         141.8323  140.7224  168.4652 C.ar    1  UNL1        0.0846
     13 N         142.4221  140.7036  171.5859 N.am    1  UNL1       -0.3253
     14 C         141.3453  141.5415  170.9626 C.2     1  UNL1        0.2443
     15 O         140.3375  142.2347  171.8308 O.2     1  UNL1       -0.2703
     16 H         142.4673  140.6086  172.5648 H       1  UNL1        0.1453
     17 H         143.0836  140.2486  171.0161 H       1  UNL1        0.1453
     18 C         142.0555  143.0155  161.9608 C.2     1  UNL1        0.4062
     19 O         142.9009  144.2412  162.1434 O.2     1  UNL1       -0.2260
     20 N         140.5852  143.1511  161.6967 N.am    1  UNL1       -0.2704
     21 H         140.0304  142.3467  161.5769 H       1  UNL1        0.1527
     22 C         139.9602  144.5123  161.6152 C.3     1  UNL1        0.0927
     23 C         139.8758  145.3734  162.8406 C.3     1  UNL1        0.0214
     24 C         139.5269  144.7613  164.1648 C.3     1  UNL1        0.0018
     25 C         138.1404  144.2441  164.4100 C.3     1  UNL1        0.0004
     26 C         137.9348  142.8181  164.8278 C.3     1  UNL1        0.0047
     27 C         137.9127  141.7300  163.7956 C.3     1  UNL1        0.0264
     28 C         138.2496  140.3209  164.1839 C.ar    1  UNL1       -0.0222
     29 C         138.1580  139.8964  165.6197 C.ar    1  UNL1       -0.0043
     30 C         138.4949  138.4872  166.0081 C.ar    1  UNL1       -0.0003
     31 C         138.9234  137.5026  164.9607 C.ar    1  UNL1       -0.0000
     32 C         139.0150  137.9271  163.5249 C.ar    1  UNL1       -0.0003
     33 C         138.6781  139.3362  163.1366 C.ar    1  UNL1       -0.0043
@<TRIPOS>BOND
     1    13    14   am
     2    14    15    2
     3    14     8    1
     4     8     9   ar
     5     9    10   ar
     6    10    11   ar
     7    11     2    1
     8     2     3   ar
     9     3     4   ar
    10     4     5   ar
    11     5     6   ar
    12     6     1    1
    13     1    18    1
    14    18    19    2
    15    18    20   am
    16    20    22    1
    17    22    23    1
    18    23    24    1
    19    24    25    1
    20    25    26    1
    21    26    27    1
    22    27    28    1
    23    28    29   ar
    24    29    30   ar
    25    30    31   ar
    26    31    32   ar
    27    32    33   ar
    28     6     7   ar
    29    11    12   ar
    30    12     8   ar
    31     7     2   ar
    32    33    28   ar
    33    13    16    1
    34    13    17    1
    35    20    21    1
@<TRIPOS>MOLECULE
*****
 33 35 0 0 0
SMALL
GASTEIGER

@<TRIPOS>ATOM
      1 O         144.0254  142.1415  162.6858 O.3     1  UNL1       -0.4102
      2 C         142.7569  140.6651  166.1443 C.ar    1  UNL1        0.0671
      3 C         142.5584  139.2233  165.7813 C.ar    1  UNL1        0.0177
      4 C         142.8489  138.7543  164.3865 C.ar    1  UNL1        0.0046
      5 C         143.3379  139.7270  163.3547 C.ar    1  UNL1        0.0378
      6 C         143.5364  141.1688  163.7177 C.ar    1  UNL1        0.1515
      7 C         143.2459  141.6378  165.1125 C.ar    1  UNL1        0.0551
      8 C         141.5184  141.3040  169.7670 C.ar    1  UNL1        0.0721
      9 C         142.5203  142.4084  169.6042 C.ar    1  UNL1        0.0250
     10 C         143.1061  142.3035  168.2273 C.ar    1  UNL1        0.0803
     11 N         142.4663  141.1343  167.5392 N.ar    1  UNL1       -0.3033
     12 C         141.4850  140.5165  168.4907 C.ar    1  UNL1        0.0846
     13 N         140.0227  139.7046  171.1651 N.am    1  UNL1       -0.3253
     14 C         140.6944  141.0344  170.9911 C.2     1  UNL1        0.2443
     15 O         140.5422  142.0946  172.0412 O.2     1  UNL1       -0.2703
     16 H         139.4819  139.5276  171.9685 H       1  UNL1        0.1453
     17 H         140.1226  139.0087  170.4759 H       1  UNL1        0.1453
     18 C         143.3307  143.4590  162.5084 C.2     1  UNL1        0.4062
     19 O         144.1166  144.7354  162.5684 O.2     1  UNL1       -0.2260
     20 N         141.8502  143.5003  162.2709 N.am    1  UNL1       -0.2704
     21 H         141.3344  142.6627  162.2315 H       1  UNL1        0.1527
     22 C         141.1555  144.8179  162.0934 C.3     1  UNL1        0.0927
     23 C         139.7603  145.0059  162.6112 C.3     1  UNL1        0.0214
     24 C         138.7445  143.9152  162.4426 C.3     1  UNL1        0.0018
     25 C         137.8006  143.5899  163.5621 C.3     1  UNL1        0.0004
     26 C         138.3370  143.2639  164.9245 C.3     1  UNL1        0.0047
     27 C         139.5029  142.3311  165.0681 C.3     1  UNL1        0.0264
     28 C         139.3273  140.8650  164.8043 C.ar    1  UNL1       -0.0222
     29 C         139.5923  140.3124  163.4352 C.ar    1  UNL1       -0.0043
     30 C         139.4168  138.8462  163.1713 C.ar    1  UNL1       -0.0003
     31 C         138.9762  137.9327  164.2765 C.ar    1  UNL1       -0.0000
     32 C         138.7112  138.4854  165.6456 C.ar    1  UNL1       -0.0003
     33 C         138.8867  139.9515  165.9095 C.ar    1  UNL1       -0.0043
@<TRIPOS>BOND
     1    13    14   am
     2    14    15    2
     3    14     8    1
     4     8     9   ar
     5     9    10   ar
     6    10    11   ar
     7    11     2    1
     8     2     3   ar
     9     3     4   ar
    10     4     5   ar
    11     5     6   ar
    12     6     1    1
    13     1    18    1
    14    18    19    2
    15    18    20   am
    16    20    22    1
    17    22    23    1
    18    23    24    1
    19    24    25    1
    20    25    26    1
    21    26    27    1
    22    27    28    1
    23    28    29   ar
    24    29    30   ar
    25    30    31   ar
    26    31    32   ar
    27    32    33   ar
    28     6     7   ar
    29    11    12   ar
    30    12     8   ar
    31     7     2   ar
    32    33    28   ar
    33    13    16    1
    34    13    17    1
    35    20    21    1
@<TRIPOS>MOLECULE
*****
 33 35 0 0 0
SMALL
GASTEIGER

@<TRIPOS>ATOM
      1 O         140.2497  144.4413  163.5936 O.3     1  UNL1       -0.4102
      2 C         142.3504  142.4603  166.3163 C.ar    1  UNL1        0.0671
      3 C         143.7499  142.7589  165.8669 C.ar    1  UNL1        0.0177
      4 C         143.9828  143.6183  164.6598 C.ar    1  UNL1        0.0046
      5 C         142.8160  144.1791  163.9020 C.ar    1  UNL1        0.0378
      6 C         141.4165  143.8805  164.3514 C.ar    1  UNL1        0.1515
      7 C         141.1836  143.0211  165.5585 C.ar    1  UNL1        0.0551
      8 C         141.3197  140.8104  169.6750 C.ar    1  UNL1        0.0721
      9 C         142.1986  139.7464  169.0871 C.ar    1  UNL1        0.0250
     10 C         142.6916  140.2350  167.7574 C.ar    1  UNL1        0.0803
     11 N         142.1175  141.6009  167.5235 N.ar    1  UNL1       -0.3033
     12 C         141.2696  141.9565  168.7086 C.ar    1  UNL1        0.0846
     13 N         139.8681  139.4984  171.3843 N.am    1  UNL1       -0.3253
     14 C         140.6147  140.7404  170.9972 C.2     1  UNL1        0.2443
     15 O         140.6562  141.9126  171.9322 O.2     1  UNL1       -0.2703
     16 H         139.4054  139.4525  172.2521 H       1  UNL1        0.1453
     17 H         139.8408  138.7290  170.7706 H       1  UNL1        0.1453
     18 C         139.0608  143.5756  163.2989 C.2     1  UNL1        0.4062
     19 O         137.7917  143.7536  164.0785 O.2     1  UNL1       -0.2260
     20 N         139.1409  142.5318  162.2246 N.am    1  UNL1       -0.2704
     21 H         139.9738  142.4150  161.7129 H       1  UNL1        0.1527
     22 C         137.9519  141.6661  161.9299 C.3     1  UNL1        0.0927
     23 C         137.7261  140.4090  162.7164 C.3     1  UNL1        0.0214
     24 C         137.9346  139.0718  162.0694 C.3     1  UNL1        0.0018
     25 C         139.3107  138.6489  161.6480 C.3     1  UNL1        0.0004
     26 C         140.0511  137.6107  162.4379 C.3     1  UNL1        0.0047
     27 C         140.6286  137.9585  163.7779 C.3     1  UNL1        0.0264
     28 C         139.7184  138.2487  164.9344 C.ar    1  UNL1       -0.0222
     29 C         139.8395  139.5464  165.6768 C.ar    1  UNL1       -0.0043
     30 C         138.9294  139.8367  166.8333 C.ar    1  UNL1       -0.0003
     31 C         137.8982  138.8291  167.2474 C.ar    1  UNL1       -0.0000
     32 C         137.7771  137.5313  166.5049 C.ar    1  UNL1       -0.0003
     33 C         138.6873  137.2411  165.3485 C.ar    1  UNL1       -0.0043
@<TRIPOS>BOND
     1    13    14   am
     2    14    15    2
     3    14     8    1
     4     8     9   ar
     5     9    10   ar
     6    10    11   ar
     7    11     2    1
     8     2     3   ar
     9     3     4   ar
    10     4     5   ar
    11     5     6   ar
    12     6     1    1
    13     1    18    1
    14    18    19    2
    15    18    20   am
    16    20    22    1
    17    22    23    1
    18    23    24    1
    19    24    25    1
    20    25    26    1
    21    26    27    1
    22    27    28    1
    23    28    29   ar
    24    29    30   ar
    25    30    31   ar
    26    31    32   ar
    27    32    33   ar
    28     6     7   ar
    29    11    12   ar
    30    12     8   ar
    31     7     2   ar
    32    33    28   ar
    33    13    16    1
    34    13    17    1
    35    20    21    1
@<TRIPOS>MOLECULE
*****
 33 35 0 0 0
SMALL
GASTEIGER

@<TRIPOS>ATOM
      1 O         144.5075  142.8432  163.4636 O.3     1  UNL1       -0.4102
      2 C         142.8494  140.7396  166.3919 C.ar    1  UNL1        0.0671
      3 C         143.3789  139.3688  166.0912 C.ar    1  UNL1        0.0177
      4 C         144.2846  139.1561  164.9146 C.ar    1  UNL1        0.0046
      5 C         144.6608  140.3143  164.0387 C.ar    1  UNL1        0.0378
      6 C         144.1313  141.6851  164.3395 C.ar    1  UNL1        0.1515
      7 C         143.2256  141.8977  165.5161 C.ar    1  UNL1        0.0551
      8 C         140.7624  141.9980  169.4129 C.ar    1  UNL1        0.0721
      9 C         140.3374  140.5610  169.3455 C.ar    1  UNL1        0.0250
     10 C         141.0675  139.9147  168.2057 C.ar    1  UNL1        0.0803
     11 N         141.9437  140.9523  167.5686 N.ar    1  UNL1       -0.3033
     12 C         141.7551  142.2398  168.3147 C.ar    1  UNL1        0.0846
     13 N         140.1809  144.4587  170.0104 N.am    1  UNL1       -0.3253
     14 C         140.2794  143.0147  170.4044 C.2     1  UNL1        0.2443
     15 O         139.8950  142.5875  171.7899 O.2     1  UNL1       -0.2703
     16 H         139.8639  145.1260  170.6612 H       1  UNL1        0.1453
     17 H         140.4332  144.7391  169.1011 H       1  UNL1        0.1453
     18 C         143.4769  143.8671  163.0904 C.2     1  UNL1        0.4062
     19 O         143.7457  145.3234  163.3290 O.2     1  UNL1       -0.2260
     20 N         142.1774  143.4348  162.4784 N.am    1  UNL1       -0.2704
     21 H         142.0009  142.4789  162.3218 H       1  UNL1        0.1527
     22 C         141.1467  144.4587  162.1052 C.3     1  UNL1        0.0927
     23 C         139.9577  144.6837  162.9916 C.3     1  UNL1        0.0214
     24 C         140.1202  144.6685  164.4827 C.3     1  UNL1        0.0018
     25 C         139.9096  143.3953  165.2472 C.3     1  UNL1        0.0004
     26 C         139.0785  142.2948  164.6570 C.3     1  UNL1        0.0047
     27 C         139.1645  140.9065  165.2183 C.3     1  UNL1        0.0264
     28 C         139.9337  139.8475  164.4856 C.ar    1  UNL1       -0.0222
     29 C         139.9486  138.4391  165.0014 C.ar    1  UNL1       -0.0043
     30 C         140.7178  137.3801  164.2687 C.ar    1  UNL1       -0.0003
     31 C         141.4721  137.7295  163.0201 C.ar    1  UNL1       -0.0000
     32 C         141.4571  139.1380  162.5042 C.ar    1  UNL1       -0.0003
     33 C         140.6879  140.1970  163.2370 C.ar    1  UNL1       -0.0043
@<TRIPOS>BOND
     1    13    14   am
     2    14    15    2
     3    14     8    1
     4     8     9   ar
     5     9    10   ar
     6    10    11   ar
     7    11     2    1
     8     2     3   ar
     9     3     4   ar
    10     4     5   ar
    11     5     6   ar
    12     6     1    1
    13     1    18    1
    14    18    19    2
    15    18    20   am
    16    20    22    1
    17    22    23    1
    18    23    24    1
    19    24    25    1
    20    25    26    1
    21    26    27    1
    22    27    28    1
    23    28    29   ar
    24    29    30   ar
    25    30    31   ar
    26    31    32   ar
    27    32    33   ar
    28     6     7   ar
    29    11    12   ar
    30    12     8   ar
    31     7     2   ar
    32    33    28   ar
    33    13    16    1
    34    13    17    1
    35    20    21    1
@<TRIPOS>MOLECULE
*****
 33 35 0 0 0
SMALL
GASTEIGER

@<TRIPOS>ATOM
      1 O         140.4875  137.7104  163.6936 O.3     1  UNL1       -0.4102
      2 C         140.2970  139.7506  167.0923 C.ar    1  UNL1        0.0671
      3 C         138.8702  139.5103  167.4876 C.ar    1  UNL1        0.0177
      4 C         137.9824  138.6700  166.6182 C.ar    1  UNL1        0.0046
      5 C         138.5216  138.0700  165.3536 C.ar    1  UNL1        0.0378
      6 C         139.9484  138.3103  164.9583 C.ar    1  UNL1        0.1515
      7 C         140.8361  139.1506  165.8276 C.ar    1  UNL1        0.0551
      8 C         141.9772  142.3467  169.4381 C.ar    1  UNL1        0.0721
      9 C         143.1248  141.4213  169.1608 C.ar    1  UNL1        0.0250
     10 C         142.6350  140.3362  168.2483 C.ar    1  UNL1        0.0803
     11 N         141.1848  140.5909  167.9617 N.ar    1  UNL1       -0.3033
     12 C         140.7783  141.8335  168.6970 C.ar    1  UNL1        0.0846
     13 N         143.2455  143.8706  171.1172 N.am    1  UNL1       -0.3253
     14 C         142.0210  143.5704  170.3045 C.2     1  UNL1        0.2443
     15 O         140.8403  144.4940  170.3581 O.2     1  UNL1       -0.2703
     16 H         143.2742  144.6738  171.6858 H       1  UNL1        0.1453
     17 H         144.0204  143.2644  171.0820 H       1  UNL1        0.1453
     18 C         141.4932  138.4644  162.8750 C.2     1  UNL1        0.4062
     19 O         141.0682  139.6684  162.0876 O.2     1  UNL1       -0.2260
     20 N         142.9238  138.0145  162.8438 N.am    1  UNL1       -0.2704
     21 H         143.2027  137.2243  163.3606 H       1  UNL1        0.1527
     22 C         143.9295  138.7686  162.0252 C.3     1  UNL1        0.0927
     23 C         144.4343  140.0998  162.4974 C.3     1  UNL1        0.0214
     24 C         144.8389  140.2833  163.9301 C.3     1  UNL1        0.0018
     25 C         143.9808  141.0964  164.8535 C.3     1  UNL1        0.0004
     26 C         142.8713  141.9396  164.2984 C.3     1  UNL1        0.0047
     27 C         141.9875  142.7207  165.2250 C.3     1  UNL1        0.0264
     28 C         140.6686  143.2448  164.7394 C.ar    1  UNL1       -0.0222
     29 C         140.6229  144.4507  163.8485 C.ar    1  UNL1       -0.0043
     30 C         139.3040  144.9748  163.3628 C.ar    1  UNL1       -0.0003
     31 C         138.0309  144.2929  163.7679 C.ar    1  UNL1       -0.0000
     32 C         138.0766  143.0870  164.6588 C.ar    1  UNL1       -0.0003
     33 C         139.3955  142.5629  165.1445 C.ar    1  UNL1       -0.0043
@<TRIPOS>BOND
     1    13    14   am
     2    14    15    2
     3    14     8    1
     4     8     9   ar
     5     9    10   ar
     6    10    11   ar
     7    11     2    1
     8     2     3   ar
     9     3     4   ar
    10     4     5   ar
    11     5     6   ar
    12     6     1    1
    13     1    18    1
    14    18    19    2
    15    18    20   am
    16    20    22    1
    17    22    23    1
    18    23    24    1
    19    24    25    1
    20    25    26    1
    21    26    27    1
    22    27    28    1
    23    28    29   ar
    24    29    30   ar
    25    30    31   ar
    26    31    32   ar
    27    32    33   ar
    28     6     7   ar
    29    11    12   ar
    30    12     8   ar
    31     7     2   ar
    32    33    28   ar
    33    13    16    1
    34    13    17    1
    35    20    21    1
@<TRIPOS>MOLECULE
*****
 33 35 0 0 0
SMALL
GASTEIGER

@<TRIPOS>ATOM
      1 O         139.9034  137.6422  162.6378 O.3     1  UNL1       -0.4102
      2 C         141.8135  139.0793  165.8058 C.ar    1  UNL1        0.0671
      3 C         143.2158  139.1585  165.2795 C.ar    1  UNL1        0.0177
      4 C         143.5140  138.7322  163.8726 C.ar    1  UNL1        0.0046
      5 C         142.4099  138.2268  162.9921 C.ar    1  UNL1        0.0378
      6 C         141.0075  138.1476  163.5184 C.ar    1  UNL1        0.1515
      7 C         140.7093  138.5738  164.9252 C.ar    1  UNL1        0.0551
      8 C         140.3381  140.2724  169.1919 C.ar    1  UNL1        0.0721
      9 C         141.7743  140.0505  169.5636 C.ar    1  UNL1        0.0250
     10 C         142.5018  139.5766  168.3404 C.ar    1  UNL1        0.0803
     11 N         141.5152  139.5055  167.2128 N.ar    1  UNL1       -0.3033
     12 C         140.1780  139.9356  167.7390 C.ar    1  UNL1        0.0846
     13 N         138.0639  139.8740  170.3833 N.am    1  UNL1       -0.3253
     14 C         139.2526  140.7476  170.1117 C.2     1  UNL1        0.2443
     15 O         139.3559  142.0964  170.7597 O.2     1  UNL1       -0.2703
     16 H         137.3515  140.1859  170.9870 H       1  UNL1        0.1453
     17 H         137.9962  138.9887  169.9580 H       1  UNL1        0.1453
     18 C         138.7453  138.5338  162.3006 C.2     1  UNL1        0.4062
     19 O         137.4975  137.9503  161.7067 O.2     1  UNL1       -0.2260
     20 N         138.8349  140.0090  162.5571 N.am    1  UNL1       -0.2704
     21 H         139.6539  140.3920  162.9468 H       1  UNL1        0.1527
     22 C         137.6768  140.9007  162.2198 C.3     1  UNL1        0.0927
     23 C         137.2863  142.0082  163.1530 C.3     1  UNL1        0.0214
     24 C         138.1791  143.2026  163.3145 C.3     1  UNL1        0.0018
     25 C         138.2193  143.9377  164.6214 C.3     1  UNL1        0.0004
     26 C         139.4895  143.9821  165.4182 C.3     1  UNL1        0.0047
     27 C         140.3077  142.7374  165.5951 C.3     1  UNL1        0.0264
     28 C         141.6511  142.6233  164.9377 C.ar    1  UNL1       -0.0222
     29 C         142.8992  142.8545  165.7370 C.ar    1  UNL1       -0.0043
     30 C         144.2427  142.7404  165.0796 C.ar    1  UNL1       -0.0003
     31 C         144.3381  142.3950  163.6230 C.ar    1  UNL1       -0.0000
     32 C         143.0899  142.1638  162.8238 C.ar    1  UNL1       -0.0003
     33 C         141.7465  142.2780  163.4812 C.ar    1  UNL1       -0.0043
@<TRIPOS>BOND
     1    13    14   am
     2    14    15    2
     3    14     8    1
     4     8     9   ar
     5     9    10   ar
     6    10    11   ar
     7    11     2    1
     8     2     3   ar
     9     3     4   ar
    10     4     5   ar
    11     5     6   ar
    12     6     1    1
    13     1    18    1
    14    18    19    2
    15    18    20   am
    16    20    22    1
    17    22    23    1
    18    23    24    1
    19    24    25    1
    20    25    26    1
    21    26    27    1
    22    27    28    1
    23    28    29   ar
    24    29    30   ar
    25    30    31   ar
    26    31    32   ar
    27    32    33   ar
    28     6     7   ar
    29    11    12   ar
    30    12     8   ar
    31     7     2   ar
    32    33    28   ar
    33    13    16    1
    34    13    17    1
    35    20    21    1
@<TRIPOS>MOLECULE
*****
 33 35 0 0 0
SMALL
GASTEIGER

@<TRIPOS>ATOM
      1 O         139.0332  143.2395  163.5399 O.3     1  UNL1       -0.4102
      2 C         140.2516  141.0818  166.6398 C.ar    1  UNL1        0.0671
      3 C         139.3451  139.8918  166.5308 C.ar    1  UNL1        0.0177
      4 C         138.3345  139.8176  165.4248 C.ar    1  UNL1        0.0046
      5 C         138.2306  140.9335  164.4278 C.ar    1  UNL1        0.0378
      6 C         139.1371  142.1236  164.5369 C.ar    1  UNL1        0.1515
      7 C         140.1477  142.1977  165.6429 C.ar    1  UNL1        0.0551
      8 C         142.8069  142.0189  169.4072 C.ar    1  UNL1        0.0721
      9 C         142.8278  140.5212  169.4885 C.ar    1  UNL1        0.0250
     10 C         141.8731  139.9879  168.4618 C.ar    1  UNL1        0.0803
     11 N         141.2622  141.1560  167.7459 N.ar    1  UNL1       -0.3033
     12 C         141.8393  142.4111  168.3302 C.ar    1  UNL1        0.0846
     13 N         145.1077  142.8470  170.2851 N.am    1  UNL1       -0.3253
     14 C         143.6122  142.9592  170.2542 C.2     1  UNL1        0.2443
     15 O         142.9220  144.0116  171.0703 O.2     1  UNL1       -0.2703
     16 H         145.6362  143.4641  170.8410 H       1  UNL1        0.1453
     17 H         145.5606  142.1563  169.7494 H       1  UNL1        0.1453
     18 C         140.2668  143.9728  163.1036 C.2     1  UNL1        0.4062
     19 O         140.2488  145.4682  162.9875 O.2     1  UNL1       -0.2260
     20 N         141.5185  143.2107  162.7834 N.am    1  UNL1       -0.2704
     21 H         141.5303  142.2292  162.8596 H       1  UNL1        0.1527
     22 C         142.7521  143.9441  162.3471 C.3     1  UNL1        0.0927
     23 C         144.0881  143.5701  162.9175 C.3     1  UNL1        0.0214
     24 C         144.6794  142.2236  162.6223 C.3     1  UNL1        0.0018
     25 C         145.5215  141.5320  163.6530 C.3     1  UNL1        0.0004
     26 C         145.0747  140.2215  164.2302 C.3     1  UNL1        0.0047
     27 C         143.7752  140.1339  164.9742 C.3     1  UNL1        0.0264
     28 C         142.6551  139.2969  164.4314 C.ar    1  UNL1       -0.0222
     29 C         141.9601  139.7037  163.1659 C.ar    1  UNL1       -0.0043
     30 C         140.8399  138.8667  162.6229 C.ar    1  UNL1       -0.0003
     31 C         140.4148  137.6229  163.3456 C.ar    1  UNL1       -0.0000
     32 C         141.1097  137.2161  164.6111 C.ar    1  UNL1       -0.0003
     33 C         142.2299  138.0531  165.1540 C.ar    1  UNL1       -0.0043
@<TRIPOS>BOND
     1    13    14   am
     2    14    15    2
     3    14     8    1
     4     8     9   ar
     5     9    10   ar
     6    10    11   ar
     7    11     2    1
     8     2     3   ar
     9     3     4   ar
    10     4     5   ar
    11     5     6   ar
    12     6     1    1
    13     1    18    1
    14    18    19    2
    15    18    20   am
    16    20    22    1
    17    22    23    1
    18    23    24    1
    19    24    25    1
    20    25    26    1
    21    26    27    1
    22    27    28    1
    23    28    29   ar
    24    29    30   ar
    25    30    31   ar
    26    31    32   ar
    27    32    33   ar
    28     6     7   ar
    29    11    12   ar
    30    12     8   ar
    31     7     2   ar
    32    33    28   ar
    33    13    16    1
    34    13    17    1
    35    20    21    1
