@<TRIPOS>MOLECULE
*****
 39 42 0 0 0
SMALL
GASTEIGER

@<TRIPOS>ATOM
      1 C         141.2229  142.6247  166.4601 C.3     1  UNL1        0.0542
      2 C         142.2880  142.5514  165.4065 C.3     1  UNL1        0.0162
      3 C         142.0690  143.2008  164.0722 C.3     1  UNL1        0.0104
      4 C         140.7849  143.9236  163.7916 C.3     1  UNL1        0.0768
      5 C         139.7198  143.9969  164.8453 C.3     1  UNL1        0.0095
      6 C         138.4221  144.3367  165.5165 C.3     1  UNL1        0.0005
      7 C         139.0501  144.7644  163.7442 C.3     1  UNL1        0.0005
      8 C         139.9387  143.3474  166.1795 C.3     1  UNL1        0.0162
      9 C         140.5660  144.5731  162.4574 C.2     1  UNL1        0.2251
     10 O         140.7647  146.0517  162.3013 O.2     1  UNL1       -0.2749
     11 N         140.1483  143.7440  161.2792 N.am    1  UNL1       -0.2795
     12 C         139.9496  142.2654  161.4353 C.3     1  UNL1        0.0942
     13 C         139.5319  141.4363  160.2570 C.3     1  UNL1        0.0343
     14 C         139.3130  142.0857  158.9228 C.3     1  UNL1        0.0911
     15 C         139.5117  143.5644  158.7667 C.3     1  UNL1        0.0343
     16 C         139.9293  144.3934  159.9449 C.3     1  UNL1        0.0942
     17 C         138.9855  142.2404  157.4672 C.ar    1  UNL1       -0.0145
     18 C         140.0448  142.0069  156.4312 C.ar    1  UNL1       -0.0038
     19 C         139.7173  142.1616  154.9755 C.ar    1  UNL1       -0.0003
     20 C         138.3306  142.5496  154.5559 C.ar    1  UNL1       -0.0000
     21 C         137.2713  142.7831  155.5919 C.ar    1  UNL1       -0.0003
     22 C         137.5986  142.6285  157.0475 C.ar    1  UNL1       -0.0038
     23 C         139.0005  140.6609  158.5733 C.2     1  UNL1        0.2287
     24 O         137.5800  140.2405  158.3381 O.2     1  UNL1       -0.2745
     25 N         140.1086  139.6564  158.4591 N.am    1  UNL1       -0.2758
     26 C         139.7962  138.2315  158.1097 C.3     1  UNL1        0.1149
     27 C         141.5292  140.0768  158.6944 C.3     1  UNL1        0.1149
     28 N         141.4419  141.9752  167.7944 N.3     1  UNL1       -0.2962
     29 H         142.4440  142.0150  167.9803 H       1  UNL1        0.1235
     30 C         141.0165  140.5539  168.0155 C.3     1  UNL1        0.0768
     31 C         141.1782  139.9244  169.3674 C.3     1  UNL1        0.0220
     32 C         139.2557  138.1785  164.6233 C.ar    1  UNL1        0.1387
     33 C         138.3538  138.8570  165.6113 C.ar    1  UNL1        0.0366
     34 C         138.9407  139.6488  166.7420 C.ar    1  UNL1        0.0001
     35 C         140.4296  139.7621  166.8848 C.ar    1  UNL1       -0.0078
     36 C         141.3315  139.0836  165.8968 C.ar    1  UNL1        0.0001
     37 C         140.7446  138.2918  164.7661 C.ar    1  UNL1        0.0366
     38 C         138.4002  138.0485  162.1736 C.3     1  UNL1        0.2525
     39 O         138.6688  137.3866  163.4926 O.3     1  UNL1       -0.4714
@<TRIPOS>BOND
     1    38    39    1
     2    39    32    1
     3    32    33   ar
     4    33    34   ar
     5    34    35   ar
     6    35    30    1
     7    30    31    1
     8    30    28    1
     9     1    28    1
    10     1     2    1
    11     2     3    1
    12     3     4    1
    13     4     9    1
    14     9    10    2
    15     9    11   am
    16    11    12    1
    17    12    13    1
    18    13    14    1
    19    14    23    1
    20    23    24    2
    21    23    25   am
    22    25    26    1
    23    25    27    1
    24    14    17    1
    25    17    18   ar
    26    18    19   ar
    27    19    20   ar
    28    20    21   ar
    29    21    22   ar
    30    14    15    1
    31    15    16    1
    32     4     5    1
    33     5     6    1
    34     5     7    1
    35     5     8    1
    36    35    36   ar
    37    36    37   ar
    38    37    32   ar
    39     8     1    1
    40    16    11    1
    41    22    17   ar
    42    28    29    1
@<TRIPOS>MOLECULE
*****
 39 42 0 0 0
SMALL
GASTEIGER

@<TRIPOS>ATOM
      1 C         140.5909  144.6093  158.5216 C.3     1  UNL1        0.0542
      2 C         141.7250  143.6412  158.6840 C.3     1  UNL1        0.0162
      3 C         142.3814  143.4724  160.0221 C.3     1  UNL1        0.0104
      4 C         141.9037  144.2719  161.1980 C.3     1  UNL1        0.0768
      5 C         140.7695  145.2401  161.0357 C.3     1  UNL1        0.0095
      6 C         139.7390  146.2744  161.3796 C.3     1  UNL1        0.0005
      7 C         141.0680  145.4305  162.4932 C.3     1  UNL1        0.0005
      8 C         140.1131  145.4088  159.6975 C.3     1  UNL1        0.0162
      9 C         142.5601  144.1031  162.5361 C.2     1  UNL1        0.2251
     10 O         143.7286  144.9652  162.9124 O.2     1  UNL1       -0.2749
     11 N         142.0480  143.0724  163.4981 N.am    1  UNL1       -0.2795
     12 C         140.8795  142.2104  163.1218 C.3     1  UNL1        0.0942
     13 C         140.3674  141.1796  164.0838 C.3     1  UNL1        0.0343
     14 C         141.0238  141.0109  165.4219 C.3     1  UNL1        0.0911
     15 C         142.1923  141.8730  165.7981 C.3     1  UNL1        0.0343
     16 C         142.7044  142.9037  164.8362 C.3     1  UNL1        0.0942
     17 C         141.3087  140.4786  166.7950 C.ar    1  UNL1       -0.0145
     18 C         142.5609  139.6930  167.0499 C.ar    1  UNL1       -0.0038
     19 C         142.8458  139.1607  168.4231 C.ar    1  UNL1       -0.0003
     20 C         141.8787  139.4140  169.5413 C.ar    1  UNL1       -0.0000
     21 C         140.6266  140.1996  169.2863 C.ar    1  UNL1       -0.0003
     22 C         140.3416  140.7319  167.9133 C.ar    1  UNL1       -0.0038
     23 C         139.9543  139.9640  165.5226 C.2     1  UNL1        0.2287
     24 O         138.6393  140.2945  166.1642 O.2     1  UNL1       -0.2745
     25 N         140.1997  138.5867  164.9816 N.am    1  UNL1       -0.2758
     26 C         139.1301  137.5399  165.0822 C.3     1  UNL1        0.1149
     27 C         141.5146  138.2562  164.3399 C.3     1  UNL1        0.1149
     28 N         139.9345  144.7780  157.1835 N.3     1  UNL1       -0.2962
     29 H         139.9183  143.8571  156.7453 H       1  UNL1        0.1235
     30 C         140.5160  145.7263  156.1771 C.3     1  UNL1        0.0768
     31 C         141.7189  145.3248  155.3761 C.3     1  UNL1        0.0220
     32 C         138.6513  149.7751  155.5611 C.ar    1  UNL1        0.1387
     33 C         139.5060  149.1717  154.4863 C.ar    1  UNL1        0.0366
     34 C         140.1276  147.8221  154.6916 C.ar    1  UNL1        0.0001
     35 C         139.8944  147.0759  155.9718 C.ar    1  UNL1       -0.0078
     36 C         139.0397  147.6793  157.0466 C.ar    1  UNL1        0.0001
     37 C         138.4181  149.0290  156.8412 C.ar    1  UNL1        0.0366
     38 C         138.8729  152.2765  154.8948 C.3     1  UNL1        0.2525
     39 O         138.0297  151.1248  155.3557 O.3     1  UNL1       -0.4714
@<TRIPOS>BOND
     1    38    39    1
     2    39    32    1
     3    32    33   ar
     4    33    34   ar
     5    34    35   ar
     6    35    30    1
     7    30    31    1
     8    30    28    1
     9     1    28    1
    10     1     2    1
    11     2     3    1
    12     3     4    1
    13     4     9    1
    14     9    10    2
    15     9    11   am
    16    11    12    1
    17    12    13    1
    18    13    14    1
    19    14    23    1
    20    23    24    2
    21    23    25   am
    22    25    26    1
    23    25    27    1
    24    14    17    1
    25    17    18   ar
    26    18    19   ar
    27    19    20   ar
    28    20    21   ar
    29    21    22   ar
    30    14    15    1
    31    15    16    1
    32     4     5    1
    33     5     6    1
    34     5     7    1
    35     5     8    1
    36    35    36   ar
    37    36    37   ar
    38    37    32   ar
    39     8     1    1
    40    16    11    1
    41    22    17   ar
    42    28    29    1
@<TRIPOS>MOLECULE
*****
 39 42 0 0 0
SMALL
GASTEIGER

@<TRIPOS>ATOM
      1 C         141.0628  143.7119  158.3275 C.3     1  UNL1        0.0542
      2 C         141.5135  144.7553  159.3064 C.3     1  UNL1        0.0162
      3 C         140.8321  144.8797  160.6369 C.3     1  UNL1        0.0104
      4 C         139.7000  143.9607  160.9885 C.3     1  UNL1        0.0768
      5 C         139.2492  142.9172  160.0097 C.3     1  UNL1        0.0095
      6 C         138.4676  141.7798  159.4220 C.3     1  UNL1        0.0005
      7 C         138.2964  142.6466  161.1360 C.3     1  UNL1        0.0005
      8 C         139.9306  142.7929  158.6791 C.3     1  UNL1        0.0162
      9 C         139.0186  144.0850  162.3190 C.2     1  UNL1        0.2251
     10 O         137.7669  144.9017  162.4472 O.2     1  UNL1       -0.2749
     11 N         139.5889  143.3928  163.5213 N.am    1  UNL1       -0.2795
     12 C         140.8405  142.5762  163.3931 C.3     1  UNL1        0.0942
     13 C         141.4109  141.8839  164.5955 C.3     1  UNL1        0.0343
     14 C         140.7295  142.0083  165.9260 C.3     1  UNL1        0.0911
     15 C         139.4777  142.8249  166.0541 C.3     1  UNL1        0.0343
     16 C         138.9075  143.5171  164.8518 C.3     1  UNL1        0.0942
     17 C         140.4489  141.8272  167.3883 C.ar    1  UNL1       -0.0145
     18 C         139.8642  140.5386  167.8858 C.ar    1  UNL1       -0.0038
     19 C         139.5837  140.3575  169.3483 C.ar    1  UNL1       -0.0003
     20 C         139.8878  141.4650  170.3130 C.ar    1  UNL1       -0.0000
     21 C         140.4726  142.7536  169.8155 C.ar    1  UNL1       -0.0003
     22 C         140.7531  142.9347  168.3531 C.ar    1  UNL1       -0.0038
     23 C         141.8837  141.1287  166.3056 C.2     1  UNL1        0.2287
     24 O         143.0193  141.6875  167.1108 O.2     1  UNL1       -0.2745
     25 N         141.9025  139.6905  165.8801 N.am    1  UNL1       -0.2758
     26 C         143.0567  138.8110  166.2597 C.3     1  UNL1        0.1149
     27 C         140.7669  139.1318  165.0749 C.3     1  UNL1        0.1149
     28 N         141.7442  143.5876  156.9970 N.3     1  UNL1       -0.2962
     29 H         142.5417  144.2233  157.0141 H       1  UNL1        0.1235
     30 C         140.9858  143.8780  155.7359 C.3     1  UNL1        0.0768
     31 C         140.6889  142.7716  154.7676 C.3     1  UNL1        0.0220
     32 C         139.6012  148.0686  154.8575 C.ar    1  UNL1        0.1387
     33 C         139.1125  147.3592  156.0854 C.ar    1  UNL1        0.0366
     34 C         139.5740  145.9623  156.3782 C.ar    1  UNL1        0.0001
     35 C         140.5243  145.2749  155.4431 C.ar    1  UNL1       -0.0078
     36 C         141.0130  145.9843  154.2152 C.ar    1  UNL1        0.0001
     37 C         140.5515  147.3812  153.9224 C.ar    1  UNL1        0.0366
     38 C         138.5222  150.2947  155.6514 C.3     1  UNL1        0.2525
     39 O         139.1397  149.4655  154.5646 O.3     1  UNL1       -0.4714
@<TRIPOS>BOND
     1    38    39    1
     2    39    32    1
     3    32    33   ar
     4    33    34   ar
     5    34    35   ar
     6    35    30    1
     7    30    31    1
     8    30    28    1
     9     1    28    1
    10     1     2    1
    11     2     3    1
    12     3     4    1
    13     4     9    1
    14     9    10    2
    15     9    11   am
    16    11    12    1
    17    12    13    1
    18    13    14    1
    19    14    23    1
    20    23    24    2
    21    23    25   am
    22    25    26    1
    23    25    27    1
    24    14    17    1
    25    17    18   ar
    26    18    19   ar
    27    19    20   ar
    28    20    21   ar
    29    21    22   ar
    30    14    15    1
    31    15    16    1
    32     4     5    1
    33     5     6    1
    34     5     7    1
    35     5     8    1
    36    35    36   ar
    37    36    37   ar
    38    37    32   ar
    39     8     1    1
    40    16    11    1
    41    22    17   ar
    42    28    29    1
@<TRIPOS>MOLECULE
*****
 39 42 0 0 0
SMALL
GASTEIGER

@<TRIPOS>ATOM
      1 C         143.3884  138.4716  165.7858 C.3     1  UNL1        0.0542
      2 C         144.4705  139.1170  164.9719 C.3     1  UNL1        0.0162
      3 C         144.3428  139.1919  163.4792 C.3     1  UNL1        0.0104
      4 C         143.1330  138.6213  162.8004 C.3     1  UNL1        0.0768
      5 C         142.0508  137.9759  163.6143 C.3     1  UNL1        0.0095
      6 C         140.7698  137.2715  163.9504 C.3     1  UNL1        0.0005
      7 C         141.4782  137.8061  162.2384 C.3     1  UNL1        0.0005
      8 C         142.1785  137.9010  165.1070 C.3     1  UNL1        0.0162
      9 C         143.0053  138.6962  161.3078 C.2     1  UNL1        0.2251
     10 O         143.2945  137.4869  160.4687 O.2     1  UNL1       -0.2749
     11 N         142.5884  139.9803  160.6542 N.am    1  UNL1       -0.2795
     12 C         142.2992  141.1895  161.4932 C.3     1  UNL1        0.0942
     13 C         141.8823  142.4737  160.8396 C.3     1  UNL1        0.0343
     14 C         141.7546  142.5486  159.3469 C.3     1  UNL1        0.0911
     15 C         142.0438  141.3393  158.5079 C.3     1  UNL1        0.0343
     16 C         142.4607  140.0552  159.1615 C.3     1  UNL1        0.0942
     17 C         141.4952  143.1113  157.9810 C.ar    1  UNL1       -0.0145
     18 C         142.6448  143.4951  157.0972 C.ar    1  UNL1       -0.0038
     19 C         142.3853  144.0578  155.7311 C.ar    1  UNL1       -0.0003
     20 C         140.9763  144.2367  155.2488 C.ar    1  UNL1       -0.0000
     21 C         139.8267  143.8528  156.1326 C.ar    1  UNL1       -0.0003
     22 C         140.0861  143.2901  157.4986 C.ar    1  UNL1       -0.0038
     23 C         141.3753  143.9533  159.7116 C.2     1  UNL1        0.2287
     24 O         142.2692  145.0951  159.3279 O.2     1  UNL1       -0.2745
     25 N         140.1022  144.2161  160.4599 N.am    1  UNL1       -0.2758
     26 C         139.7229  145.6208  160.8246 C.3     1  UNL1        0.1149
     27 C         139.2083  143.0743  160.8436 C.3     1  UNL1        0.1149
     28 N         143.5161  138.3967  167.2785 N.3     1  UNL1       -0.2962
     29 H         143.3081  137.4341  167.5439 H       1  UNL1        0.1235
     30 C         142.6702  139.2782  168.1487 C.3     1  UNL1        0.0768
     31 C         142.6180  139.0426  169.6292 C.3     1  UNL1        0.0220
     32 C         140.2893  142.6294  166.3182 C.ar    1  UNL1        0.1387
     33 C         141.7554  142.8071  166.5803 C.ar    1  UNL1        0.0366
     34 C         142.5491  141.6900  167.1905 C.ar    1  UNL1        0.0001
     35 C         141.8766  140.3953  167.5386 C.ar    1  UNL1       -0.0078
     36 C         140.4104  140.2175  167.2765 C.ar    1  UNL1        0.0001
     37 C         139.6168  141.3346  166.6663 C.ar    1  UNL1        0.0366
     38 C         140.0002  144.4399  164.4775 C.3     1  UNL1        0.2525
     39 O         139.4956  143.7464  165.7081 O.3     1  UNL1       -0.4714
@<TRIPOS>BOND
     1    38    39    1
     2    39    32    1
     3    32    33   ar
     4    33    34   ar
     5    34    35   ar
     6    35    30    1
     7    30    31    1
     8    30    28    1
     9     1    28    1
    10     1     2    1
    11     2     3    1
    12     3     4    1
    13     4     9    1
    14     9    10    2
    15     9    11   am
    16    11    12    1
    17    12    13    1
    18    13    14    1
    19    14    23    1
    20    23    24    2
    21    23    25   am
    22    25    26    1
    23    25    27    1
    24    14    17    1
    25    17    18   ar
    26    18    19   ar
    27    19    20   ar
    28    20    21   ar
    29    21    22   ar
    30    14    15    1
    31    15    16    1
    32     4     5    1
    33     5     6    1
    34     5     7    1
    35     5     8    1
    36    35    36   ar
    37    36    37   ar
    38    37    32   ar
    39     8     1    1
    40    16    11    1
    41    22    17   ar
    42    28    29    1
@<TRIPOS>MOLECULE
*****
 39 42 0 0 0
SMALL
GASTEIGER

@<TRIPOS>ATOM
      1 C         141.7865  138.1353  158.1723 C.3     1  UNL1        0.0542
      2 C         142.9542  137.7799  159.0441 C.3     1  UNL1        0.0162
      3 C         142.7870  137.7188  160.5335 C.3     1  UNL1        0.0104
      4 C         141.4521  138.0129  161.1511 C.3     1  UNL1        0.0768
      5 C         140.2843  138.3683  160.2792 C.3     1  UNL1        0.0095
      6 C         138.8904  138.7482  159.8760 C.3     1  UNL1        0.0005
      7 C         139.6330  138.4391  161.6286 C.3     1  UNL1        0.0005
      8 C         140.4515  138.4295  158.7898 C.3     1  UNL1        0.0162
      9 C         141.2849  137.9518  162.6405 C.2     1  UNL1        0.2251
     10 O         140.9376  136.6518  163.3034 O.2     1  UNL1       -0.2749
     11 N         141.4650  139.1905  163.4669 N.am    1  UNL1       -0.2795
     12 C         141.8123  140.4904  162.8039 C.3     1  UNL1        0.0942
     13 C         141.9924  141.7293  163.6303 C.3     1  UNL1        0.0343
     14 C         141.8252  141.6681  165.1197 C.3     1  UNL1        0.0911
     15 C         141.4779  140.3681  165.7827 C.3     1  UNL1        0.0343
     16 C         141.2978  139.1294  164.9563 C.3     1  UNL1        0.0942
     17 C         141.7722  142.1119  166.5515 C.ar    1  UNL1       -0.0145
     18 C         143.0029  142.0372  167.4059 C.ar    1  UNL1       -0.0038
     19 C         142.9499  142.4811  168.8378 C.ar    1  UNL1       -0.0003
     20 C         141.6664  142.9996  169.4153 C.ar    1  UNL1       -0.0000
     21 C         140.4357  143.0743  168.5609 C.ar    1  UNL1       -0.0003
     22 C         140.4886  142.6305  167.1290 C.ar    1  UNL1       -0.0038
     23 C         142.1541  143.1222  164.9540 C.2     1  UNL1        0.2287
     24 O         141.0675  144.1522  165.0464 O.2     1  UNL1       -0.2745
     25 N         143.5695  143.5463  164.6958 N.am    1  UNL1       -0.2758
     26 C         143.8984  145.0004  164.5301 C.3     1  UNL1        0.1149
     27 C         144.6561  142.5164  164.6034 C.3     1  UNL1        0.1149
     28 N         141.9536  138.1964  156.6829 N.3     1  UNL1       -0.2962
     29 H         141.0390  138.0014  156.2757 H       1  UNL1        0.1235
     30 C         142.9339  137.2892  156.0003 C.3     1  UNL1        0.0768
     31 C         144.1387  137.8650  155.3170 C.3     1  UNL1        0.0220
     32 C         142.2603  132.8398  156.0024 C.ar    1  UNL1        0.1387
     33 C         141.3503  133.7358  155.2156 C.ar    1  UNL1        0.0366
     34 C         141.5748  135.2189  155.2149 C.ar    1  UNL1        0.0001
     35 C         142.7094  135.8060  156.0010 C.ar    1  UNL1       -0.0078
     36 C         143.6194  134.9101  156.7878 C.ar    1  UNL1        0.0001
     37 C         143.3949  133.4270  156.7885 C.ar    1  UNL1        0.0366
     38 C         143.1988  130.4222  156.1574 C.3     1  UNL1        0.2525
     39 O         142.0358  131.3567  156.0031 O.3     1  UNL1       -0.4714
@<TRIPOS>BOND
     1    38    39    1
     2    39    32    1
     3    32    33   ar
     4    33    34   ar
     5    34    35   ar
     6    35    30    1
     7    30    31    1
     8    30    28    1
     9     1    28    1
    10     1     2    1
    11     2     3    1
    12     3     4    1
    13     4     9    1
    14     9    10    2
    15     9    11   am
    16    11    12    1
    17    12    13    1
    18    13    14    1
    19    14    23    1
    20    23    24    2
    21    23    25   am
    22    25    26    1
    23    25    27    1
    24    14    17    1
    25    17    18   ar
    26    18    19   ar
    27    19    20   ar
    28    20    21   ar
    29    21    22   ar
    30    14    15    1
    31    15    16    1
    32     4     5    1
    33     5     6    1
    34     5     7    1
    35     5     8    1
    36    35    36   ar
    37    36    37   ar
    38    37    32   ar
    39     8     1    1
    40    16    11    1
    41    22    17   ar
    42    28    29    1
@<TRIPOS>MOLECULE
*****
 39 42 0 0 0
SMALL
GASTEIGER

@<TRIPOS>ATOM
      1 C         139.1366  140.8008  163.8163 C.3     1  UNL1        0.0542
      2 C         140.3506  140.6323  162.9516 C.3     1  UNL1        0.0162
      3 C         140.8777  141.7950  162.1641 C.3     1  UNL1        0.0104
      4 C         140.1909  143.1263  162.2413 C.3     1  UNL1        0.0768
      5 C         138.9768  143.2948  163.1060 C.3     1  UNL1        0.0095
      6 C         137.8044  143.9456  163.7783 C.3     1  UNL1        0.0005
      7 C         139.0968  144.6835  162.5520 C.3     1  UNL1        0.0005
      8 C         138.4496  142.1321  163.8935 C.3     1  UNL1        0.0162
      9 C         140.7180  144.2890  161.4538 C.2     1  UNL1        0.2251
     10 O         141.5695  145.3254  162.1254 O.2     1  UNL1       -0.2749
     11 N         140.3938  144.4154  159.9948 N.am    1  UNL1       -0.2795
     12 C         139.5424  143.3790  159.3232 C.3     1  UNL1        0.0942
     13 C         139.2182  143.5053  157.8641 C.3     1  UNL1        0.0343
     14 C         139.7453  144.6681  157.0766 C.3     1  UNL1        0.0911
     15 C         140.5967  145.7045  157.7482 C.3     1  UNL1        0.0343
     16 C         140.9210  145.5781  159.2073 C.3     1  UNL1        0.0942
     17 C         140.0085  145.5810  155.9159 C.ar    1  UNL1       -0.0145
     18 C         139.2554  146.8722  155.7914 C.ar    1  UNL1       -0.0038
     19 C         139.5187  147.7852  154.6307 C.ar    1  UNL1       -0.0003
     20 C         140.5350  147.4069  153.5945 C.ar    1  UNL1       -0.0000
     21 C         141.2881  146.1157  153.7189 C.ar    1  UNL1       -0.0003
     22 C         141.0249  145.2027  154.8796 C.ar    1  UNL1       -0.0038
     23 C         138.9853  143.9487  156.0019 C.2     1  UNL1        0.2287
     24 O         137.6726  144.4916  155.5201 O.2     1  UNL1       -0.2745
     25 N         139.5380  142.6866  155.4091 N.am    1  UNL1       -0.2758
     26 C         138.7781  141.9673  154.3344 C.3     1  UNL1        0.1149
     27 C         140.8508  142.1438  155.8909 C.3     1  UNL1        0.1149
     28 N         138.6094  139.6380  164.6037 N.3     1  UNL1       -0.2962
     29 H         137.5949  139.6470  164.4986 H       1  UNL1        0.1235
     30 C         138.8916  139.5380  166.0735 C.3     1  UNL1        0.0768
     31 C         138.0038  138.7082  166.9528 C.3     1  UNL1        0.0220
     32 C         142.4014  141.7274  167.8450 C.ar    1  UNL1        0.1387
     33 C         141.0207  142.3009  167.9664 C.ar    1  UNL1        0.0366
     34 C         139.8508  141.5712  167.3759 C.ar    1  UNL1        0.0001
     35 C         140.0615  140.2678  166.6640 C.ar    1  UNL1       -0.0078
     36 C         141.4421  139.6942  166.5426 C.ar    1  UNL1        0.0001
     37 C         142.6121  140.4240  167.1331 C.ar    1  UNL1        0.0366
     38 C         143.8467  142.3664  169.9071 C.3     1  UNL1        0.2525
     39 O         143.5713  142.4571  168.4355 O.3     1  UNL1       -0.4714
@<TRIPOS>BOND
     1    38    39    1
     2    39    32    1
     3    32    33   ar
     4    33    34   ar
     5    34    35   ar
     6    35    30    1
     7    30    31    1
     8    30    28    1
     9     1    28    1
    10     1     2    1
    11     2     3    1
    12     3     4    1
    13     4     9    1
    14     9    10    2
    15     9    11   am
    16    11    12    1
    17    12    13    1
    18    13    14    1
    19    14    23    1
    20    23    24    2
    21    23    25   am
    22    25    26    1
    23    25    27    1
    24    14    17    1
    25    17    18   ar
    26    18    19   ar
    27    19    20   ar
    28    20    21   ar
    29    21    22   ar
    30    14    15    1
    31    15    16    1
    32     4     5    1
    33     5     6    1
    34     5     7    1
    35     5     8    1
    36    35    36   ar
    37    36    37   ar
    38    37    32   ar
    39     8     1    1
    40    16    11    1
    41    22    17   ar
    42    28    29    1
@<TRIPOS>MOLECULE
*****
 39 42 0 0 0
SMALL
GASTEIGER

@<TRIPOS>ATOM
      1 C         141.1104  143.7439  158.3436 C.3     1  UNL1        0.0542
      2 C         141.5410  144.7916  159.3268 C.3     1  UNL1        0.0162
      3 C         140.8432  144.9112  160.6492 C.3     1  UNL1        0.0104
      4 C         139.7148  143.9831  160.9885 C.3     1  UNL1        0.0768
      5 C         139.2841  142.9353  160.0053 C.3     1  UNL1        0.0095
      6 C         138.5188  141.7910  159.4094 C.3     1  UNL1        0.0005
      7 C         138.3205  142.6575  161.1207 C.3     1  UNL1        0.0005
      8 C         139.9819  142.8156  158.6828 C.3     1  UNL1        0.0162
      9 C         139.0170  144.1027  162.3109 C.2     1  UNL1        0.2251
     10 O         137.7572  144.9092  162.4239 O.2     1  UNL1       -0.2749
     11 N         139.5788  143.4159  163.5202 N.am    1  UNL1       -0.2795
     12 C         140.8385  142.6095  163.4071 C.3     1  UNL1        0.0942
     13 C         141.4004  141.9226  164.6165 C.3     1  UNL1        0.0343
     14 C         140.7026  142.0422  165.9389 C.3     1  UNL1        0.0911
     15 C         139.4429  142.8487  166.0519 C.3     1  UNL1        0.0343
     16 C         138.8810  143.5355  164.8426 C.3     1  UNL1        0.0942
     17 C         140.4066  141.8598  167.3980 C.ar    1  UNL1       -0.0145
     18 C         140.6897  142.9707  168.3654 C.ar    1  UNL1       -0.0038
     19 C         140.3936  142.7882  169.8245 C.ar    1  UNL1       -0.0003
     20 C         139.8146  141.4949  170.3163 C.ar    1  UNL1       -0.0000
     21 C         139.5315  140.3840  169.3490 C.ar    1  UNL1       -0.0003
     22 C         139.8275  140.5664  167.8898 C.ar    1  UNL1       -0.0038
     23 C         141.8595  141.1724  166.3326 C.2     1  UNL1        0.2287
     24 O         142.9757  141.7380  167.1599 O.2     1  UNL1       -0.2745
     25 N         141.9003  139.7371  165.8990 N.am    1  UNL1       -0.2758
     26 C         143.0572  138.8672  166.2926 C.3     1  UNL1        0.1149
     27 C         140.7842  139.1715  165.0717 C.3     1  UNL1        0.1149
     28 N         141.8082  143.6242  157.0212 N.3     1  UNL1       -0.2962
     29 H         141.1002  143.3552  156.3380 H       1  UNL1        0.1235
     30 C         142.9512  142.6664  156.8603 C.3     1  UNL1        0.0768
     31 C         143.8696  142.7862  155.6804 C.3     1  UNL1        0.0220
     32 C         143.6253  139.4336  159.9172 C.ar    1  UNL1        0.1387
     33 C         142.9397  139.1106  158.6228 C.ar    1  UNL1        0.0366
     34 C         142.7150  140.1882  157.6038 C.ar    1  UNL1        0.0001
     35 C         143.1759  141.5888  157.8793 C.ar    1  UNL1       -0.0078
     36 C         143.8615  141.9118  159.1737 C.ar    1  UNL1        0.0001
     37 C         144.0861  140.8342  160.1927 C.ar    1  UNL1        0.0366
     38 C         143.6391  138.6454  162.3928 C.3     1  UNL1        0.2525
     39 O         143.8499  138.3560  160.9362 O.3     1  UNL1       -0.4714
@<TRIPOS>BOND
     1    38    39    1
     2    39    32    1
     3    32    33   ar
     4    33    34   ar
     5    34    35   ar
     6    35    30    1
     7    30    31    1
     8    30    28    1
     9     1    28    1
    10     1     2    1
    11     2     3    1
    12     3     4    1
    13     4     9    1
    14     9    10    2
    15     9    11   am
    16    11    12    1
    17    12    13    1
    18    13    14    1
    19    14    23    1
    20    23    24    2
    21    23    25   am
    22    25    26    1
    23    25    27    1
    24    14    17    1
    25    17    18   ar
    26    18    19   ar
    27    19    20   ar
    28    20    21   ar
    29    21    22   ar
    30    14    15    1
    31    15    16    1
    32     4     5    1
    33     5     6    1
    34     5     7    1
    35     5     8    1
    36    35    36   ar
    37    36    37   ar
    38    37    32   ar
    39     8     1    1
    40    16    11    1
    41    22    17   ar
    42    28    29    1
@<TRIPOS>MOLECULE
*****
 39 42 0 0 0
SMALL
GASTEIGER

@<TRIPOS>ATOM
      1 C         141.6824  142.1259  166.3483 C.3     1  UNL1        0.0542
      2 C         142.9852  141.5159  165.9235 C.3     1  UNL1        0.0162
      3 C         143.6276  141.9401  164.6362 C.3     1  UNL1        0.0104
      4 C         142.9672  142.9744  163.7736 C.3     1  UNL1        0.0768
      5 C         141.6644  143.5845  164.1984 C.3     1  UNL1        0.0095
      6 C         140.4366  144.4458  164.1730 C.3     1  UNL1        0.0005
      7 C         141.8804  144.3078  162.9022 C.3     1  UNL1        0.0005
      8 C         141.0219  143.1603  165.4857 C.3     1  UNL1        0.0162
      9 C         143.6097  143.3986  162.4862 C.2     1  UNL1        0.2251
     10 O         144.4097  144.6662  162.4293 O.2     1  UNL1       -0.2749
     11 N         143.4520  142.5553  161.2558 N.am    1  UNL1       -0.2795
     12 C         142.6520  141.2877  161.3128 C.3     1  UNL1        0.0942
     13 C         142.4944  140.4444  160.0823 C.3     1  UNL1        0.0343
     14 C         143.1368  140.8686  158.7950 C.3     1  UNL1        0.0911
     15 C         143.9369  142.1362  158.7380 C.3     1  UNL1        0.0343
     16 C         144.0945  142.9795  159.9684 C.3     1  UNL1        0.0942
     17 C         143.5514  140.8504  157.3535 C.ar    1  UNL1       -0.0145
     18 C         142.5492  141.1588  156.2809 C.ar    1  UNL1       -0.0038
     19 C         142.9638  141.1406  154.8394 C.ar    1  UNL1       -0.0003
     20 C         144.3805  140.8140  154.4706 C.ar    1  UNL1       -0.0000
     21 C         145.3827  140.5056  155.5432 C.ar    1  UNL1       -0.0003
     22 C         144.9682  140.5238  156.9847 C.ar    1  UNL1       -0.0038
     23 C         142.4807  139.5947  158.3513 C.2     1  UNL1        0.2287
     24 O         143.3157  138.3833  158.0592 O.2     1  UNL1       -0.2745
     25 N         140.9898  139.5322  158.1998 N.am    1  UNL1       -0.2758
     26 C         140.3337  138.2584  157.7562 C.3     1  UNL1        0.1149
     27 C         140.1548  140.7437  158.4919 C.3     1  UNL1        0.1149
     28 N         141.0399  141.7017  167.6357 N.3     1  UNL1       -0.2962
     29 H         141.7916  141.3921  168.2518 H       1  UNL1        0.1235
     30 C         140.0053  140.6158  167.6354 C.3     1  UNL1        0.0768
     31 C         139.3660  140.1886  168.9233 C.3     1  UNL1        0.0220
     32 C         138.8189  138.6393  163.7706 C.ar    1  UNL1        0.1387
     33 C         139.9748  138.1042  164.5628 C.ar    1  UNL1        0.0366
     34 C         140.3702  138.7630  165.8510 C.ar    1  UNL1        0.0001
     35 C         139.6098  139.9570  166.3471 C.ar    1  UNL1       -0.0078
     36 C         138.4540  140.4921  165.5550 C.ar    1  UNL1        0.0001
     37 C         138.0585  139.8333  164.2667 C.ar    1  UNL1        0.0366
     38 C         139.3212  138.0763  161.2846 C.3     1  UNL1        0.2525
     39 O         138.4235  137.9805  162.4824 O.3     1  UNL1       -0.4714
@<TRIPOS>BOND
     1    38    39    1
     2    39    32    1
     3    32    33   ar
     4    33    34   ar
     5    34    35   ar
     6    35    30    1
     7    30    31    1
     8    30    28    1
     9     1    28    1
    10     1     2    1
    11     2     3    1
    12     3     4    1
    13     4     9    1
    14     9    10    2
    15     9    11   am
    16    11    12    1
    17    12    13    1
    18    13    14    1
    19    14    23    1
    20    23    24    2
    21    23    25   am
    22    25    26    1
    23    25    27    1
    24    14    17    1
    25    17    18   ar
    26    18    19   ar
    27    19    20   ar
    28    20    21   ar
    29    21    22   ar
    30    14    15    1
    31    15    16    1
    32     4     5    1
    33     5     6    1
    34     5     7    1
    35     5     8    1
    36    35    36   ar
    37    36    37   ar
    38    37    32   ar
    39     8     1    1
    40    16    11    1
    41    22    17   ar
    42    28    29    1
@<TRIPOS>MOLECULE
*****
 39 42 0 0 0
SMALL
GASTEIGER

@<TRIPOS>ATOM
      1 C         138.7735  139.2923  166.2520 C.3     1  UNL1        0.0542
      2 C         139.1096  137.9926  165.5828 C.3     1  UNL1        0.0162
      3 C         138.9421  137.8474  164.0993 C.3     1  UNL1        0.0104
      4 C         138.4384  139.0020  163.2849 C.3     1  UNL1        0.0768
      5 C         138.1022  140.3018  163.9540 C.3     1  UNL1        0.0095
      6 C         137.6538  141.7224  164.1291 C.3     1  UNL1        0.0005
      7 C         137.7790  140.6500  162.5313 C.3     1  UNL1        0.0005
      8 C         138.2698  140.4469  165.4376 C.3     1  UNL1        0.0162
      9 C         138.2708  138.8569  161.8014 C.2     1  UNL1        0.2251
     10 O         136.9785  138.3430  161.2393 O.2     1  UNL1       -0.2749
     11 N         139.3955  139.2256  160.8800 N.am    1  UNL1       -0.2795
     12 C         140.6878  139.7394  161.4421 C.3     1  UNL1        0.0942
     13 C         141.8125  140.1082  160.5206 C.3     1  UNL1        0.0343
     14 C         141.6450  139.9631  159.0371 C.3     1  UNL1        0.0911
     15 C         140.3527  139.4492  158.4750 C.3     1  UNL1        0.0343
     16 C         139.2280  139.0804  159.3964 C.3     1  UNL1        0.0942
     17 C         141.9648  140.0010  157.5721 C.ar    1  UNL1       -0.0145
     18 C         141.8381  141.2866  156.8098 C.ar    1  UNL1       -0.0038
     19 C         142.1579  141.3244  155.3447 C.ar    1  UNL1       -0.0003
     20 C         142.6044  140.0768  154.6420 C.ar    1  UNL1       -0.0000
     21 C         142.7311  138.7912  155.4044 C.ar    1  UNL1       -0.0003
     22 C         142.4113  138.7532  156.8694 C.ar    1  UNL1       -0.0038
     23 C         143.0483  140.4901  159.0904 C.2     1  UNL1        0.2287
     24 O         144.2039  139.5764  158.8077 O.2     1  UNL1       -0.2745
     25 N         143.2961  141.9308  159.4265 N.am    1  UNL1       -0.2758
     26 C         144.6995  142.4578  159.4798 C.3     1  UNL1        0.1149
     27 C         142.1406  142.8445  159.7092 C.3     1  UNL1        0.1149
     28 N         138.9411  139.4374  167.7355 N.3     1  UNL1       -0.2962
     29 H         138.1854  140.0410  168.0595 H       1  UNL1        0.1235
     30 C         140.2142  139.9994  168.2951 C.3     1  UNL1        0.0768
     31 C         140.4174  140.0624  169.7799 C.3     1  UNL1        0.0220
     32 C         143.4243  141.4963  165.5193 C.ar    1  UNL1        0.1387
     33 C         143.3396  140.0356  165.8495 C.ar    1  UNL1        0.0366
     34 C         142.2696  139.5366  166.7748 C.ar    1  UNL1        0.0001
     35 C         141.2843  140.4983  167.3698 C.ar    1  UNL1       -0.0078
     36 C         141.3689  141.9590  167.0396 C.ar    1  UNL1        0.0001
     37 C         142.4389  142.4580  166.1143 C.ar    1  UNL1        0.0366
     38 C         145.4232  141.0236  163.9284 C.3     1  UNL1        0.2525
     39 O         144.4943  141.9952  164.5940 O.3     1  UNL1       -0.4714
@<TRIPOS>BOND
     1    38    39    1
     2    39    32    1
     3    32    33   ar
     4    33    34   ar
     5    34    35   ar
     6    35    30    1
     7    30    31    1
     8    30    28    1
     9     1    28    1
    10     1     2    1
    11     2     3    1
    12     3     4    1
    13     4     9    1
    14     9    10    2
    15     9    11   am
    16    11    12    1
    17    12    13    1
    18    13    14    1
    19    14    23    1
    20    23    24    2
    21    23    25   am
    22    25    26    1
    23    25    27    1
    24    14    17    1
    25    17    18   ar
    26    18    19   ar
    27    19    20   ar
    28    20    21   ar
    29    21    22   ar
    30    14    15    1
    31    15    16    1
    32     4     5    1
    33     5     6    1
    34     5     7    1
    35     5     8    1
    36    35    36   ar
    37    36    37   ar
    38    37    32   ar
    39     8     1    1
    40    16    11    1
    41    22    17   ar
    42    28    29    1
