@<TRIPOS>MOLECULE
*****
 33 35 0 0 0
SMALL
GASTEIGER

@<TRIPOS>ATOM
      1 C         142.2149  139.1002  164.6870 C.3     1  UNL1        0.0690
      2 C         141.1263  138.0763  164.8156 C.3     1  UNL1        0.0485
      3 C         140.7685  137.2109  163.6437 C.3     1  UNL1        0.1436
      4 O         141.4992  137.3695  162.3435 O.3     1  UNL1       -0.3537
      5 C         142.5879  138.3934  162.2149 C.3     1  UNL1        0.1436
      6 C         142.9457  139.2587  163.3868 C.3     1  UNL1        0.0485
      7 N         141.0116  139.7724  168.9708 N.3     1  UNL1       -0.2682
      8 C         142.4397  139.4621  168.6327 C.3     1  UNL1        0.0897
      9 C         142.8408  139.2380  167.2048 C.3     1  UNL1        0.0896
     10 N         141.8138  139.3243  166.1149 N.3     1  UNL1       -0.2710
     11 C         140.3858  139.6346  166.4530 C.3     1  UNL1        0.0896
     12 C         139.9847  139.8586  167.8809 C.3     1  UNL1        0.0897
     13 C         140.6105  139.9965  170.3987 C.3     1  UNL1        0.1046
     14 C         141.2777  141.0708  171.2053 C.3     1  UNL1        0.1594
     15 O         140.4687  142.2090  171.7530 O.3     1  UNL1       -0.3523
     16 C         140.4302  143.6297  169.5781 C.3     1  UNL1        0.0346
     17 C         139.7474  143.1344  170.8184 C.3     1  UNL1        0.1423
     18 C         143.1642  140.2019  165.0545 C.3     1  UNL1        0.1143
     19 N         142.9857  141.5718  164.4700 N.am    1  UNL1       -0.2425
     20 C         144.1642  142.3026  163.8981 C.2     1  UNL1        0.2304
     21 O         145.5212  141.6636  163.9107 O.2     1  UNL1       -0.2745
     22 C         141.6287  142.2108  164.4574 C.ar    1  UNL1        0.1373
     23 C         141.1204  142.9159  165.6799 C.ar    1  UNL1        0.0347
     24 C         139.7633  143.5549  165.6673 C.ar    1  UNL1        0.0044
     25 C         138.9147  143.4888  164.4323 C.ar    1  UNL1        0.0232
     26 C         139.4230  142.7837  163.2098 C.ar    1  UNL1        0.1540
     27 N         140.7800  142.1447  163.2224 N.ar    1  UNL1       -0.2263
     28 C         138.5742  142.7176  161.9748 C.3     1  UNL1        0.4349
     29 F         137.7255  142.6515  160.7397 F       1  UNL1       -0.1644
     30 F         137.3472  142.9502  162.8055 F       1  UNL1       -0.1644
     31 F         139.8013  142.4849  161.1439 F       1  UNL1       -0.1644
     32 C         143.9857  143.6725  163.3136 C.3     1  UNL1        0.0857
     33 C         143.9318  144.8709  164.2139 C.3     1  UNL1        0.0101
@<TRIPOS>BOND
     1    16    17    1
     2    17    15    1
     3    15    14    1
     4    14    13    1
     5    13     7    1
     6     7     8    1
     7     8     9    1
     8     9    10    1
     9    10     1    1
    10     1    18    1
    11    18    19    1
    12    19    20   am
    13    20    21    2
    14    20    32    1
    15    32    33    1
    16    19    22    1
    17    22    23   ar
    18    23    24   ar
    19    24    25   ar
    20    25    26   ar
    21    26    28    1
    22    28    29    1
    23    28    30    1
    24    28    31    1
    25    26    27   ar
    26     1     2    1
    27     2     3    1
    28     3     4    1
    29     4     5    1
    30     5     6    1
    31    10    11    1
    32    11    12    1
    33    12     7    1
    34     6     1    1
    35    27    22   ar
@<TRIPOS>MOLECULE
*****
 33 35 0 0 0
SMALL
GASTEIGER

@<TRIPOS>ATOM
      1 C         143.2664  141.5121  164.7441 C.3     1  UNL1        0.0690
      2 C         144.1134  140.2805  164.8704 C.3     1  UNL1        0.0485
      3 C         144.8198  139.7295  163.6674 C.3     1  UNL1        0.1436
      4 O         144.6793  140.4099  162.3380 O.3     1  UNL1       -0.3537
      5 C         143.8324  141.6415  162.2117 C.3     1  UNL1        0.1436
      6 C         143.1259  142.1925  163.4147 C.3     1  UNL1        0.0485
      7 N         142.7424  140.6498  169.1295 N.3     1  UNL1       -0.2682
      8 C         142.5676  139.5514  168.1230 C.3     1  UNL1        0.0897
      9 C         142.7422  139.8389  166.6612 C.3     1  UNL1        0.0896
     10 N         143.0918  141.2247  166.2059 N.3     1  UNL1       -0.2710
     11 C         143.2666  142.3230  167.2123 C.3     1  UNL1        0.0896
     12 C         143.0919  142.0356  168.6741 C.3     1  UNL1        0.0897
     13 C         142.5677  140.3624  170.5913 C.3     1  UNL1        0.1046
     14 C         141.2807  140.7149  171.2764 C.3     1  UNL1        0.1594
     15 O         140.9286  142.1530  171.5171 O.3     1  UNL1       -0.3523
     16 C         140.3163  144.0905  169.8981 C.3     1  UNL1        0.0346
     17 C         139.9318  142.8395  170.6310 C.3     1  UNL1        0.1423
     18 C         142.3588  142.6438  165.1254 C.3     1  UNL1        0.1143
     19 N         140.9335  142.6522  164.6581 N.am    1  UNL1       -0.2425
     20 C         140.3257  143.9166  164.1274 C.2     1  UNL1        0.2304
     21 O         141.1431  145.1727  164.0639 O.2     1  UNL1       -0.2745
     22 C         140.1160  141.3962  164.7216 C.ar    1  UNL1        0.1373
     23 C         139.4436  141.0029  166.0035 C.ar    1  UNL1        0.0347
     24 C         138.6262  139.7468  166.0670 C.ar    1  UNL1        0.0044
     25 C         138.4810  138.8841  164.8486 C.ar    1  UNL1        0.0232
     26 C         139.1534  139.2773  163.5667 C.ar    1  UNL1        0.1540
     27 N         139.9709  140.5334  163.5032 N.ar    1  UNL1       -0.2263
     28 C         139.0082  138.4145  162.3483 C.3     1  UNL1        0.4349
     29 F         138.8630  137.5515  161.1300 F       1  UNL1       -0.1644
     30 F         139.3284  139.5920  161.4761 F       1  UNL1       -0.1644
     31 F         138.6880  137.2368  163.2206 F       1  UNL1       -0.1644
     32 C         138.9004  143.9251  163.6601 C.3     1  UNL1        0.0857
     33 C         137.7926  144.1909  164.6359 C.3     1  UNL1        0.0101
@<TRIPOS>BOND
     1    16    17    1
     2    17    15    1
     3    15    14    1
     4    14    13    1
     5    13     7    1
     6     7     8    1
     7     8     9    1
     8     9    10    1
     9    10     1    1
    10     1    18    1
    11    18    19    1
    12    19    20   am
    13    20    21    2
    14    20    32    1
    15    32    33    1
    16    19    22    1
    17    22    23   ar
    18    23    24   ar
    19    24    25   ar
    20    25    26   ar
    21    26    28    1
    22    28    29    1
    23    28    30    1
    24    28    31    1
    25    26    27   ar
    26     1     2    1
    27     2     3    1
    28     3     4    1
    29     4     5    1
    30     5     6    1
    31    10    11    1
    32    11    12    1
    33    12     7    1
    34     6     1    1
    35    27    22   ar
@<TRIPOS>MOLECULE
*****
 33 35 0 0 0
SMALL
GASTEIGER

@<TRIPOS>ATOM
      1 C         143.0429  141.7342  164.5242 C.3     1  UNL1        0.0690
      2 C         144.2403  140.8376  164.6366 C.3     1  UNL1        0.0485
      3 C         145.0859  140.5608  163.4289 C.3     1  UNL1        0.1436
      4 O         144.7342  141.1805  162.1090 O.3     1  UNL1       -0.3537
      5 C         143.5369  142.0770  161.9966 C.3     1  UNL1        0.1436
      6 C         142.6912  142.3538  163.2042 C.3     1  UNL1        0.0485
      7 N         142.8243  140.6823  168.8940 N.3     1  UNL1       -0.2682
      8 C         142.6251  139.6184  167.8557 C.3     1  UNL1        0.0897
      9 C         142.6980  139.9690  166.3990 C.3     1  UNL1        0.0896
     10 N         142.9700  141.3835  165.9808 N.3     1  UNL1       -0.2710
     11 C         143.1692  142.4475  167.0192 C.3     1  UNL1        0.0896
     12 C         143.0963  142.0969  168.4758 C.3     1  UNL1        0.0897
     13 C         142.7514  140.3317  170.3507 C.3     1  UNL1        0.1046
     14 C         141.5255  140.6745  171.1442 C.3     1  UNL1        0.1594
     15 O         141.2038  142.1082  171.4457 O.3     1  UNL1       -0.3523
     16 C         140.3583  143.9363  169.8046 C.3     1  UNL1        0.0346
     17 C         140.0756  142.7902  170.7302 C.3     1  UNL1        0.1423
     18 C         141.8203  142.5089  164.9177 C.3     1  UNL1        0.1143
     19 N         140.4857  142.1516  164.3335 N.am    1  UNL1       -0.2425
     20 C         139.5688  143.2320  163.8416 C.2     1  UNL1        0.2304
     21 O         139.9864  144.6697  163.9340 O.2     1  UNL1       -0.2745
     22 C         140.0681  140.7139  164.2411 C.ar    1  UNL1        0.1373
     23 C         140.5001  139.8811  163.0706 C.ar    1  UNL1        0.0347
     24 C         140.0825  138.4434  162.9782 C.ar    1  UNL1        0.0044
     25 C         139.2330  137.8384  164.0562 C.ar    1  UNL1        0.0232
     26 C         138.8010  138.6711  165.2267 C.ar    1  UNL1        0.1540
     27 N         139.2186  140.1089  165.3191 N.ar    1  UNL1       -0.2263
     28 C         137.9515  138.0661  166.3047 C.3     1  UNL1        0.4349
     29 F         137.1018  137.4611  167.3828 F       1  UNL1       -0.1644
     30 F         138.3038  136.6938  165.8123 F       1  UNL1       -0.1644
     31 F         137.5991  139.4384  166.7973 F       1  UNL1       -0.1644
     32 C         138.2343  142.8748  163.2573 C.3     1  UNL1        0.0857
     33 C         138.0879  142.6959  161.7753 C.3     1  UNL1        0.0101
@<TRIPOS>BOND
     1    16    17    1
     2    17    15    1
     3    15    14    1
     4    14    13    1
     5    13     7    1
     6     7     8    1
     7     8     9    1
     8     9    10    1
     9    10     1    1
    10     1    18    1
    11    18    19    1
    12    19    20   am
    13    20    21    2
    14    20    32    1
    15    32    33    1
    16    19    22    1
    17    22    23   ar
    18    23    24   ar
    19    24    25   ar
    20    25    26   ar
    21    26    28    1
    22    28    29    1
    23    28    30    1
    24    28    31    1
    25    26    27   ar
    26     1     2    1
    27     2     3    1
    28     3     4    1
    29     4     5    1
    30     5     6    1
    31    10    11    1
    32    11    12    1
    33    12     7    1
    34     6     1    1
    35    27    22   ar
@<TRIPOS>MOLECULE
*****
 33 35 0 0 0
SMALL
GASTEIGER

@<TRIPOS>ATOM
      1 C         142.2254  139.0181  164.4935 C.3     1  UNL1        0.0690
      2 C         141.1411  137.9980  164.6766 C.3     1  UNL1        0.0485
      3 C         140.8099  137.0475  163.5644 C.3     1  UNL1        0.1436
      4 O         141.5631  137.1172  162.2691 O.3     1  UNL1       -0.3537
      5 C         142.6474  138.1373  162.0860 C.3     1  UNL1        0.1436
      6 C         142.9785  139.0878  163.1982 C.3     1  UNL1        0.0485
      7 N         140.9405  139.9891  168.6954 N.3     1  UNL1       -0.2682
      8 C         139.9468  140.0530  167.5736 C.3     1  UNL1        0.0897
      9 C         140.3751  139.7293  166.1730 C.3     1  UNL1        0.0896
     10 N         141.7971  139.3418  165.8941 N.3     1  UNL1       -0.2710
     11 C         142.7907  139.2779  167.0159 C.3     1  UNL1        0.0896
     12 C         142.3625  139.6015  168.4166 C.3     1  UNL1        0.0897
     13 C         140.5122  140.3127  170.0961 C.3     1  UNL1        0.1046
     14 C         141.5044  140.8681  171.0743 C.3     1  UNL1        0.1594
     15 O         141.6524  142.3525  171.2316 O.3     1  UNL1       -0.3523
     16 C         143.8747  142.4103  169.8870 C.3     1  UNL1        0.0346
     17 C         142.6411  143.1012  170.3878 C.3     1  UNL1        0.1423
     18 C         143.1609  140.1507  164.7968 C.3     1  UNL1        0.1143
     19 N         143.0308  141.4495  164.0577 N.am    1  UNL1       -0.2425
     20 C         144.2585  142.2248  163.6817 C.2     1  UNL1        0.2304
     21 O         145.6165  141.7014  164.0449 O.2     1  UNL1       -0.2745
     22 C         141.6728  141.9729  163.6945 C.ar    1  UNL1        0.1373
     23 C         141.0302  141.5594  162.4037 C.ar    1  UNL1        0.0347
     24 C         139.6722  142.0828  162.0405 C.ar    1  UNL1        0.0044
     25 C         138.9568  143.0196  162.9681 C.ar    1  UNL1        0.0232
     26 C         139.5994  143.4331  164.2589 C.ar    1  UNL1        0.1540
     27 N         140.9574  142.9097  164.6221 N.ar    1  UNL1       -0.2263
     28 C         138.8839  144.3699  165.1865 C.3     1  UNL1        0.4349
     29 F         138.1683  145.3068  166.1140 F       1  UNL1       -0.1644
     30 F         139.8240  143.9928  166.2927 F       1  UNL1       -0.1644
     31 F         137.9436  144.7471  164.0802 F       1  UNL1       -0.1644
     32 C         144.1284  143.5235  162.9426 C.3     1  UNL1        0.0857
     33 C         143.8807  144.7952  163.6985 C.3     1  UNL1        0.0101
@<TRIPOS>BOND
     1    16    17    1
     2    17    15    1
     3    15    14    1
     4    14    13    1
     5    13     7    1
     6     7     8    1
     7     8     9    1
     8     9    10    1
     9    10     1    1
    10     1    18    1
    11    18    19    1
    12    19    20   am
    13    20    21    2
    14    20    32    1
    15    32    33    1
    16    19    22    1
    17    22    23   ar
    18    23    24   ar
    19    24    25   ar
    20    25    26   ar
    21    26    28    1
    22    28    29    1
    23    28    30    1
    24    28    31    1
    25    26    27   ar
    26     1     2    1
    27     2     3    1
    28     3     4    1
    29     4     5    1
    30     5     6    1
    31    10    11    1
    32    11    12    1
    33    12     7    1
    34     6     1    1
    35    27    22   ar
@<TRIPOS>MOLECULE
*****
 33 35 0 0 0
SMALL
GASTEIGER

@<TRIPOS>ATOM
      1 C         142.8503  140.1949  164.4059 C.3     1  UNL1        0.0690
      2 C         144.1806  140.8651  164.5825 C.3     1  UNL1        0.0485
      3 C         145.0802  141.0697  163.3998 C.3     1  UNL1        0.1436
      4 O         144.6495  140.6042  162.0405 O.3     1  UNL1       -0.3537
      5 C         143.3192  139.9341  161.8638 C.3     1  UNL1        0.1436
      6 C         142.4196  139.7294  163.0466 C.3     1  UNL1        0.0485
      7 N         142.7436  140.9890  168.8340 N.3     1  UNL1       -0.2682
      8 C         142.5176  139.5998  168.3155 C.3     1  UNL1        0.0897
      9 C         142.5532  139.3351  166.8395 C.3     1  UNL1        0.0896
     10 N         142.8147  140.4596  165.8819 N.3     1  UNL1       -0.2710
     11 C         143.0406  141.8489  166.4004 C.3     1  UNL1        0.0896
     12 C         143.0050  142.1136  167.8764 C.3     1  UNL1        0.0897
     13 C         142.7080  141.2537  170.3100 C.3     1  UNL1        0.1046
     14 C         141.4593  140.9734  171.0924 C.3     1  UNL1        0.1594
     15 O         140.6706  142.1071  171.6777 O.3     1  UNL1       -0.3523
     16 C         140.3701  143.8859  169.8081 C.3     1  UNL1        0.0346
     17 C         139.7754  142.9301  170.7994 C.3     1  UNL1        0.1423
     18 C         141.5076  139.6167  164.7420 C.3     1  UNL1        0.1143
     19 N         140.2610  140.2505  164.1993 N.am    1  UNL1       -0.2425
     20 C         139.2013  139.3987  163.5657 C.2     1  UNL1        0.2304
     21 O         139.3882  137.9132  163.4747 O.2     1  UNL1       -0.2745
     22 C         140.0742  141.7360  164.2903 C.ar    1  UNL1        0.1373
     23 C         139.6092  142.3562  165.5745 C.ar    1  UNL1        0.0347
     24 C         139.4224  143.8417  165.6655 C.ar    1  UNL1        0.0044
     25 C         139.7005  144.7070  164.4723 C.ar    1  UNL1        0.0232
     26 C         140.1655  144.0869  163.1881 C.ar    1  UNL1        0.1540
     27 N         140.3524  142.6013  163.0971 N.ar    1  UNL1       -0.2263
     28 C         140.4437  144.9523  161.9949 C.3     1  UNL1        0.4349
     29 F         140.7219  145.8177  160.8017 F       1  UNL1       -0.1644
     30 F         139.2592  145.8062  162.3381 F       1  UNL1       -0.1644
     31 F         141.6282  144.0984  161.6517 F       1  UNL1       -0.1644
     32 C         137.9548  140.0324  163.0231 C.3     1  UNL1        0.0857
     33 C         137.8446  140.3368  161.5585 C.3     1  UNL1        0.0101
@<TRIPOS>BOND
     1    16    17    1
     2    17    15    1
     3    15    14    1
     4    14    13    1
     5    13     7    1
     6     7     8    1
     7     8     9    1
     8     9    10    1
     9    10     1    1
    10     1    18    1
    11    18    19    1
    12    19    20   am
    13    20    21    2
    14    20    32    1
    15    32    33    1
    16    19    22    1
    17    22    23   ar
    18    23    24   ar
    19    24    25   ar
    20    25    26   ar
    21    26    28    1
    22    28    29    1
    23    28    30    1
    24    28    31    1
    25    26    27   ar
    26     1     2    1
    27     2     3    1
    28     3     4    1
    29     4     5    1
    30     5     6    1
    31    10    11    1
    32    11    12    1
    33    12     7    1
    34     6     1    1
    35    27    22   ar
@<TRIPOS>MOLECULE
*****
 33 35 0 0 0
SMALL
GASTEIGER

@<TRIPOS>ATOM
      1 C         140.3322  139.7087  164.6342 C.3     1  UNL1        0.0690
      2 C         141.1461  138.4615  164.8131 C.3     1  UNL1        0.0485
      3 C         141.4757  137.6044  163.6270 C.3     1  UNL1        0.1436
      4 O         140.9915  137.9946  162.2620 O.3     1  UNL1       -0.3537
      5 C         140.1776  139.2418  162.0831 C.3     1  UNL1        0.1436
      6 C         139.8480  140.0988  163.2692 C.3     1  UNL1        0.0485
      7 N         141.0200  139.8553  169.0789 N.3     1  UNL1       -0.2682
      8 C         139.6396  140.0540  168.5266 C.3     1  UNL1        0.0897
      9 C         139.4104  140.0051  167.0451 C.3     1  UNL1        0.0896
     10 N         140.5615  139.7575  166.1158 N.3     1  UNL1       -0.2710
     11 C         141.9418  139.5588  166.6680 C.3     1  UNL1        0.0896
     12 C         142.1711  139.6077  168.1496 C.3     1  UNL1        0.0897
     13 C         141.2493  139.9041  170.5605 C.3     1  UNL1        0.1046
     14 C         141.6568  141.1911  171.2143 C.3     1  UNL1        0.1594
     15 O         140.6107  142.1344  171.7301 O.3     1  UNL1       -0.3523
     16 C         140.4902  143.6860  169.6497 C.3     1  UNL1        0.0346
     17 C         139.8064  142.9601  170.7702 C.3     1  UNL1        0.1423
     18 C         139.5979  140.9729  164.9699 C.3     1  UNL1        0.1143
     19 N         140.1609  142.2999  164.5549 N.am    1  UNL1       -0.2425
     20 C         139.2392  143.4136  164.1550 C.2     1  UNL1        0.2304
     21 O         137.7545  143.2004  164.1701 O.2     1  UNL1       -0.2745
     22 C         141.6456  142.5131  164.5399 C.ar    1  UNL1        0.1373
     23 C         142.3793  142.7708  165.8226 C.ar    1  UNL1        0.0347
     24 C         143.8640  142.9840  165.8076 C.ar    1  UNL1        0.0044
     25 C         144.6149  142.9396  164.5099 C.ar    1  UNL1        0.0232
     26 C         143.8812  142.6819  163.2272 C.ar    1  UNL1        0.1540
     27 N         142.3965  142.4687  163.2422 N.ar    1  UNL1       -0.2263
     28 C         144.6323  142.6375  161.9295 C.3     1  UNL1        0.4349
     29 F         145.3834  142.5930  160.6319 F       1  UNL1       -0.1644
     30 F         143.4702  143.2831  161.2347 F       1  UNL1       -0.1644
     31 F         145.7944  141.9918  162.6243 F       1  UNL1       -0.1644
     32 C         139.8020  144.7406  163.7401 C.3     1  UNL1        0.0857
     33 C         139.9152  145.0854  162.2847 C.3     1  UNL1        0.0101
@<TRIPOS>BOND
     1    16    17    1
     2    17    15    1
     3    15    14    1
     4    14    13    1
     5    13     7    1
     6     7     8    1
     7     8     9    1
     8     9    10    1
     9    10     1    1
    10     1    18    1
    11    18    19    1
    12    19    20   am
    13    20    21    2
    14    20    32    1
    15    32    33    1
    16    19    22    1
    17    22    23   ar
    18    23    24   ar
    19    24    25   ar
    20    25    26   ar
    21    26    28    1
    22    28    29    1
    23    28    30    1
    24    28    31    1
    25    26    27   ar
    26     1     2    1
    27     2     3    1
    28     3     4    1
    29     4     5    1
    30     5     6    1
    31    10    11    1
    32    11    12    1
    33    12     7    1
    34     6     1    1
    35    27    22   ar
@<TRIPOS>MOLECULE
*****
 33 35 0 0 0
SMALL
GASTEIGER

@<TRIPOS>ATOM
      1 C         141.8536  142.5622  164.4150 C.3     1  UNL1        0.0690
      2 C         140.6612  143.3258  164.9100 C.3     1  UNL1        0.0485
      3 C         139.9822  144.3193  164.0144 C.3     1  UNL1        0.1436
      4 O         140.4957  144.5492  162.6240 O.3     1  UNL1       -0.3537
      5 C         141.6881  143.7856  162.1290 C.3     1  UNL1        0.1436
      6 C         142.3671  142.7921  163.0246 C.3     1  UNL1        0.0485
      7 N         141.5147  140.8734  168.5723 N.3     1  UNL1       -0.2682
      8 C         142.8049  141.4865  168.1148 C.3     1  UNL1        0.0897
      9 C         142.9179  142.0494  166.7290 C.3     1  UNL1        0.0896
     10 N         141.7407  141.9993  165.8008 N.3     1  UNL1       -0.2710
     11 C         140.4505  141.3862  166.2584 C.3     1  UNL1        0.0896
     12 C         140.3375  140.8232  167.6441 C.3     1  UNL1        0.0897
     13 C         141.4017  140.3104  169.9581 C.3     1  UNL1        0.1046
     14 C         141.6573  141.1881  171.1473 C.3     1  UNL1        0.1594
     15 O         140.5638  142.0655  171.6807 O.3     1  UNL1       -0.3523
     16 C         140.4709  143.9489  169.8934 C.3     1  UNL1        0.0346
     17 C         139.7725  142.9305  170.7449 C.3     1  UNL1        0.1423
     18 C         143.0068  141.6031  164.4014 C.3     1  UNL1        0.1143
     19 N         142.9503  140.3744  163.5427 N.am    1  UNL1       -0.2425
     20 C         144.0693  140.0727  162.5905 C.2     1  UNL1        0.2304
     21 O         145.2449  140.9996  162.4970 O.2     1  UNL1       -0.2745
     22 C         141.7746  139.4475  163.6363 C.ar    1  UNL1        0.1373
     23 C         141.7744  138.3358  164.6433 C.ar    1  UNL1        0.0347
     24 C         140.5988  137.4089  164.7369 C.ar    1  UNL1        0.0044
     25 C         139.4235  137.5937  163.8235 C.ar    1  UNL1        0.0232
     26 C         139.4237  138.7054  162.8165 C.ar    1  UNL1        0.1540
     27 N         140.5993  139.6323  162.7229 N.ar    1  UNL1       -0.2263
     28 C         138.2483  138.8902  161.9031 C.3     1  UNL1        0.4349
     29 F         137.0728  139.0750  160.9898 F       1  UNL1       -0.1644
     30 F         138.7937  137.8347  160.9876 F       1  UNL1       -0.1644
     31 F         137.7027  139.9458  162.8188 F       1  UNL1       -0.1644
     32 C         144.0128  138.8441  161.7319 C.3     1  UNL1        0.0857
     33 C         143.6386  138.9576  160.2838 C.3     1  UNL1        0.0101
@<TRIPOS>BOND
     1    16    17    1
     2    17    15    1
     3    15    14    1
     4    14    13    1
     5    13     7    1
     6     7     8    1
     7     8     9    1
     8     9    10    1
     9    10     1    1
    10     1    18    1
    11    18    19    1
    12    19    20   am
    13    20    21    2
    14    20    32    1
    15    32    33    1
    16    19    22    1
    17    22    23   ar
    18    23    24   ar
    19    24    25   ar
    20    25    26   ar
    21    26    28    1
    22    28    29    1
    23    28    30    1
    24    28    31    1
    25    26    27   ar
    26     1     2    1
    27     2     3    1
    28     3     4    1
    29     4     5    1
    30     5     6    1
    31    10    11    1
    32    11    12    1
    33    12     7    1
    34     6     1    1
    35    27    22   ar
@<TRIPOS>MOLECULE
*****
 33 35 0 0 0
SMALL
GASTEIGER

@<TRIPOS>ATOM
      1 C         142.8249  140.6357  164.5220 C.3     1  UNL1        0.0690
      2 C         143.6098  141.7787  165.0943 C.3     1  UNL1        0.0485
      3 C         144.7855  142.3311  164.3442 C.3     1  UNL1        0.1436
      4 O         145.1763  141.7406  163.0220 O.3     1  UNL1       -0.3537
      5 C         144.3914  140.5976  162.4497 C.3     1  UNL1        0.1436
      6 C         143.2157  140.0452  163.1997 C.3     1  UNL1        0.0485
      7 N         140.5617  141.2962  168.3549 N.3     1  UNL1       -0.2682
      8 C         140.7952  142.4416  167.4150 C.3     1  UNL1        0.0897
      9 C         141.5496  142.2214  166.1373 C.3     1  UNL1        0.0896
     10 N         142.0705  140.8559  165.7996 N.3     1  UNL1       -0.2710
     11 C         141.8369  139.7105  166.7396 C.3     1  UNL1        0.0896
     12 C         141.0825  139.9307  168.0173 C.3     1  UNL1        0.0897
     13 C         139.8073  141.5164  169.6326 C.3     1  UNL1        0.1046
     14 C         140.2593  142.5714  170.5982 C.3     1  UNL1        0.1594
     15 O         141.6250  142.4897  171.2133 O.3     1  UNL1       -0.3523
     16 C         143.7411  142.2604  169.7235 C.3     1  UNL1        0.0346
     17 C         142.7988  143.1143  170.5190 C.3     1  UNL1        0.1423
     18 C         141.7779  139.5692  164.3934 C.3     1  UNL1        0.1143
     19 N         140.6347  139.7516  163.4396 N.am    1  UNL1       -0.2425
     20 C         140.3184  138.6836  162.4350 C.2     1  UNL1        0.2304
     21 O         141.1454  137.4332  162.3841 O.2     1  UNL1       -0.2745
     22 C         139.8077  141.0020  163.4905 C.ar    1  UNL1        0.1373
     23 C         138.5889  141.0601  164.3629 C.ar    1  UNL1        0.0347
     24 C         137.7619  142.3105  164.4138 C.ar    1  UNL1        0.0044
     25 C         138.1537  143.5028  163.5923 C.ar    1  UNL1        0.0232
     26 C         139.3726  143.4447  162.7199 C.ar    1  UNL1        0.1540
     27 N         140.1996  142.1943  162.6690 N.ar    1  UNL1       -0.2263
     28 C         139.7644  144.6370  161.8985 C.3     1  UNL1        0.4349
     29 F         140.1562  145.8295  161.0771 F       1  UNL1       -0.1644
     30 F         139.8935  143.7608  160.6880 F       1  UNL1       -0.1644
     31 F         139.6353  145.5134  163.1090 F       1  UNL1       -0.1644
     32 C         139.1752  138.8660  161.4811 C.3     1  UNL1        0.0857
     33 C         137.8274  138.2944  161.8077 C.3     1  UNL1        0.0101
@<TRIPOS>BOND
     1    16    17    1
     2    17    15    1
     3    15    14    1
     4    14    13    1
     5    13     7    1
     6     7     8    1
     7     8     9    1
     8     9    10    1
     9    10     1    1
    10     1    18    1
    11    18    19    1
    12    19    20   am
    13    20    21    2
    14    20    32    1
    15    32    33    1
    16    19    22    1
    17    22    23   ar
    18    23    24   ar
    19    24    25   ar
    20    25    26   ar
    21    26    28    1
    22    28    29    1
    23    28    30    1
    24    28    31    1
    25    26    27   ar
    26     1     2    1
    27     2     3    1
    28     3     4    1
    29     4     5    1
    30     5     6    1
    31    10    11    1
    32    11    12    1
    33    12     7    1
    34     6     1    1
    35    27    22   ar
@<TRIPOS>MOLECULE
*****
 33 35 0 0 0
SMALL
GASTEIGER

@<TRIPOS>ATOM
      1 C         142.1642  142.7841  164.8195 C.3     1  UNL1        0.0690
      2 C         143.4338  142.1737  165.3348 C.3     1  UNL1        0.0485
      3 C         144.7190  142.3727  164.5872 C.3     1  UNL1        0.1436
      4 O         144.7345  143.1819  163.3244 O.3     1  UNL1       -0.3537
      5 C         143.4650  143.7923  162.8091 C.3     1  UNL1        0.1436
      6 C         142.1798  143.5934  163.5566 C.3     1  UNL1        0.0485
      7 N         140.6070  140.7464  168.5171 N.3     1  UNL1       -0.2682
      8 C         140.1964  142.1555  168.2080 C.3     1  UNL1        0.0897
      9 C         140.7155  142.8348  166.9755 C.3     1  UNL1        0.0896
     10 N         141.6452  142.1048  166.0520 N.3     1  UNL1       -0.2710
     11 C         142.0558  140.6957  166.3611 C.3     1  UNL1        0.0896
     12 C         141.5367  140.0164  167.5937 C.3     1  UNL1        0.0897
     13 C         140.0880  140.0671  169.7497 C.3     1  UNL1        0.1046
     14 C         138.6512  140.2314  170.1479 C.3     1  UNL1        0.1594
     15 O         137.9990  139.2160  171.0388 O.3     1  UNL1       -0.3523
     16 C         135.7858  138.2746  172.0215 C.3     1  UNL1        0.0346
     17 C         136.5351  138.9221  170.8948 C.3     1  UNL1        0.1423
     18 C         140.7144  143.1585  164.7322 C.3     1  UNL1        0.1143
     19 N         139.7933  142.3873  163.8340 N.am    1  UNL1       -0.2425
     20 C         138.9406  143.1110  162.8345 C.2     1  UNL1        0.2304
     21 O         139.0089  144.6060  162.7331 O.2     1  UNL1       -0.2745
     22 C         139.7250  140.8922  163.9353 C.ar    1  UNL1        0.1373
     23 C         140.4807  140.0391  162.9600 C.ar    1  UNL1        0.0347
     24 C         140.4123  138.5441  163.0614 C.ar    1  UNL1        0.0044
     25 C         139.5884  137.9022  164.1379 C.ar    1  UNL1        0.0232
     26 C         138.8327  138.7554  165.1132 C.ar    1  UNL1        0.1540
     27 N         138.9010  140.2504  165.0119 N.ar    1  UNL1       -0.2263
     28 C         138.0087  138.1134  166.1897 C.3     1  UNL1        0.4349
     29 F         137.1847  137.4715  167.2664 F       1  UNL1       -0.1644
     30 F         138.4275  136.7581  165.7022 F       1  UNL1       -0.1644
     31 F         137.5899  139.4688  166.6774 F       1  UNL1       -0.1644
     32 C         138.0196  142.3398  161.9362 C.3     1  UNL1        0.0857
     33 C         138.3938  142.1031  160.5031 C.3     1  UNL1        0.0101
@<TRIPOS>BOND
     1    16    17    1
     2    17    15    1
     3    15    14    1
     4    14    13    1
     5    13     7    1
     6     7     8    1
     7     8     9    1
     8     9    10    1
     9    10     1    1
    10     1    18    1
    11    18    19    1
    12    19    20   am
    13    20    21    2
    14    20    32    1
    15    32    33    1
    16    19    22    1
    17    22    23   ar
    18    23    24   ar
    19    24    25   ar
    20    25    26   ar
    21    26    28    1
    22    28    29    1
    23    28    30    1
    24    28    31    1
    25    26    27   ar
    26     1     2    1
    27     2     3    1
    28     3     4    1
    29     4     5    1
    30     5     6    1
    31    10    11    1
    32    11    12    1
    33    12     7    1
    34     6     1    1
    35    27    22   ar
