@<TRIPOS>MOLECULE
*****
 29 32 0 0 0
SMALL
GASTEIGER

@<TRIPOS>ATOM
      1 C         141.4410  142.0691  166.1331 C.2     1  UNL1        0.0020
      2 C         140.9772  142.5245  167.4850 C.2     1  UNL1        0.0143
      3 C         141.2897  141.7036  168.7009 C.3     1  UNL1        0.1659
      4 C         140.5135  142.9799  168.8369 C.3     1  UNL1        0.0472
      5 C         140.0499  143.4353  170.1887 C.3     1  UNL1        0.0211
      6 C         140.3623  142.6143  171.4046 C.3     1  UNL1        0.0688
      7 N         141.1384  141.3380  171.2687 N.3     1  UNL1       -0.2943
      8 C         141.6021  140.8826  169.9168 C.3     1  UNL1        0.1134
      9 O         142.0659  140.4272  168.5649 O.3     1  UNL1       -0.4772
     10 C         142.5295  139.9718  167.2130 C.ar    1  UNL1        0.1386
     11 C         143.3057  138.6954  167.0770 C.ar    1  UNL1        0.0369
     12 C         143.7694  138.2400  165.7251 C.ar    1  UNL1        0.0031
     13 C         143.4570  139.0610  164.5092 C.ar    1  UNL1        0.0002
     14 C         142.6808  140.3373  164.6452 C.ar    1  UNL1        0.0030
     15 C         142.2171  140.7927  165.9971 C.ar    1  UNL1        0.0338
     16 H         140.5501  140.5941  171.6441 H       1  UNL1        0.1234
     17 C         140.5036  144.5320  162.4854 C.ar    1  UNL1        0.0536
     18 C         141.7571  144.7950  163.2662 C.ar    1  UNL1        0.0045
     19 C         142.0695  143.9740  164.4820 C.ar    1  UNL1        0.0001
     20 C         141.1285  142.8900  164.9172 C.ar    1  UNL1       -0.0001
     21 C         139.8750  142.6270  164.1364 C.ar    1  UNL1        0.0001
     22 C         139.5625  143.4479  162.9206 C.ar    1  UNL1        0.0045
     23 N         140.7992  144.9945  159.9460 N.am    1  UNL1       -0.2761
     24 C         140.1912  145.3529  161.2695 C.2     1  UNL1        0.2490
     25 O         139.2707  146.5325  161.3772 O.2     1  UNL1       -0.2699
     26 C         141.4527  145.8548  157.5832 C.3     1  UNL1        0.0233
     27 C         140.4867  145.8154  158.7301 C.3     1  UNL1        0.0938
     28 C         141.7197  143.8150  159.8383 C.3     1  UNL1        0.0938
     29 C         141.1771  142.4739  159.4420 C.3     1  UNL1        0.0233
@<TRIPOS>BOND
     1    26    27    1
     2    27    23    1
     3    23    28    1
     4    28    29    1
     5    23    24   am
     6    24    25    2
     7    24    17    1
     8    17    18   ar
     9    18    19   ar
    10    19    20   ar
    11    20     1    1
    12     1     2    2
    13     2     3    1
    14     3     4    1
    15     4     5    1
    16     5     6    1
    17     6     7    1
    18     7     8    1
    19     3     9    1
    20     9    10    1
    21    10    11   ar
    22    11    12   ar
    23    12    13   ar
    24    13    14   ar
    25    14    15   ar
    26    20    21   ar
    27    21    22   ar
    28    22    17   ar
    29    15     1    1
    30     8     3    1
    31    15    10   ar
    32     7    16    1
@<TRIPOS>MOLECULE
*****
 29 32 0 0 0
SMALL
GASTEIGER

@<TRIPOS>ATOM
      1 C         139.7283  141.8389  165.7456 C.2     1  UNL1        0.0020
      2 C         140.0567  142.3332  167.1234 C.2     1  UNL1        0.0143
      3 C         140.0080  141.3910  168.2895 C.3     1  UNL1        0.1659
      4 C         140.3850  142.8273  168.5010 C.3     1  UNL1        0.0472
      5 C         140.7133  143.3214  169.8787 C.3     1  UNL1        0.0211
      6 C         140.6646  142.3792  171.0448 C.3     1  UNL1        0.0688
      7 N         140.2876  140.9429  170.8333 N.3     1  UNL1       -0.2943
      8 C         139.9593  140.4488  169.4557 C.3     1  UNL1        0.1134
      9 O         139.6309  139.9546  168.0779 O.3     1  UNL1       -0.4772
     10 C         139.3026  139.4604  166.7003 C.ar    1  UNL1        0.1386
     11 C         138.9255  138.0240  166.4887 C.ar    1  UNL1        0.0369
     12 C         138.5972  137.5299  165.1111 C.ar    1  UNL1        0.0031
     13 C         138.6459  138.4721  163.9449 C.ar    1  UNL1        0.0002
     14 C         139.0229  139.9084  164.1564 C.ar    1  UNL1        0.0030
     15 C         139.3513  140.4026  165.5341 C.ar    1  UNL1        0.0338
     16 H         139.4674  140.7653  171.4131 H       1  UNL1        0.1234
     17 C         139.8744  144.6655  162.2472 C.ar    1  UNL1        0.0536
     18 C         138.5546  144.2882  162.8519 C.ar    1  UNL1        0.0045
     19 C         138.5059  143.3460  164.0181 C.ar    1  UNL1        0.0001
     20 C         139.7770  142.7811  164.5795 C.ar    1  UNL1       -0.0001
     21 C         141.0969  143.1585  163.9748 C.ar    1  UNL1        0.0001
     22 C         141.1456  144.1007  162.8086 C.ar    1  UNL1        0.0045
     23 N         140.2198  145.0853  159.7066 N.am    1  UNL1       -0.2761
     24 C         139.9231  145.6077  161.0810 C.2     1  UNL1        0.2490
     25 O         139.6751  147.0724  161.2894 O.2     1  UNL1       -0.2699
     26 C         141.3484  145.8887  157.5087 C.3     1  UNL1        0.0233
     27 C         140.2684  146.0275  158.5405 C.3     1  UNL1        0.0938
     28 C         140.4678  143.6206  159.4983 C.3     1  UNL1        0.0938
     29 C         139.3137  142.6889  159.2751 C.3     1  UNL1        0.0233
@<TRIPOS>BOND
     1    26    27    1
     2    27    23    1
     3    23    28    1
     4    28    29    1
     5    23    24   am
     6    24    25    2
     7    24    17    1
     8    17    18   ar
     9    18    19   ar
    10    19    20   ar
    11    20     1    1
    12     1     2    2
    13     2     3    1
    14     3     4    1
    15     4     5    1
    16     5     6    1
    17     6     7    1
    18     7     8    1
    19     3     9    1
    20     9    10    1
    21    10    11   ar
    22    11    12   ar
    23    12    13   ar
    24    13    14   ar
    25    14    15   ar
    26    20    21   ar
    27    21    22   ar
    28    22    17   ar
    29    15     1    1
    30     8     3    1
    31    15    10   ar
    32     7    16    1
@<TRIPOS>MOLECULE
*****
 29 32 0 0 0
SMALL
GASTEIGER

@<TRIPOS>ATOM
      1 C         141.4877  140.8969  166.3557 C.2     1  UNL1        0.0020
      2 C         142.1160  141.5612  167.5448 C.2     1  UNL1        0.0143
      3 C         141.4795  141.4359  168.8972 C.3     1  UNL1        0.1659
      4 C         142.7443  142.2256  168.7338 C.3     1  UNL1        0.0472
      5 C         143.3726  142.8899  169.9229 C.3     1  UNL1        0.0211
      6 C         142.7361  142.7646  171.2753 C.3     1  UNL1        0.0688
      7 N         141.4713  141.9749  171.4387 N.3     1  UNL1       -0.2943
      8 C         140.8430  141.3106  170.2497 C.3     1  UNL1        0.1134
      9 O         140.2147  140.6462  169.0606 O.3     1  UNL1       -0.4772
     10 C         139.5864  139.9819  167.8715 C.ar    1  UNL1        0.1386
     11 C         138.3215  139.1922  168.0349 C.ar    1  UNL1        0.0369
     12 C         137.6932  138.5279  166.8459 C.ar    1  UNL1        0.0031
     13 C         138.3297  138.6532  165.4934 C.ar    1  UNL1        0.0002
     14 C         139.5945  139.4429  165.3300 C.ar    1  UNL1        0.0030
     15 C         140.2229  140.1072  166.5191 C.ar    1  UNL1        0.0338
     16 H         140.7737  142.6124  171.8226 H       1  UNL1        0.1234
     17 C         143.3972  141.2728  162.2983 C.ar    1  UNL1        0.0536
     18 C         143.9151  140.2644  163.2804 C.ar    1  UNL1        0.0045
     19 C         143.2786  140.1391  164.6329 C.ar    1  UNL1        0.0001
     20 C         142.1242  141.0222  165.0032 C.ar    1  UNL1       -0.0001
     21 C         141.6061  142.0307  164.0210 C.ar    1  UNL1        0.0001
     22 C         142.2426  142.1560  162.6686 C.ar    1  UNL1        0.0045
     23 N         143.6092  140.4899  159.8301 N.am    1  UNL1       -0.2761
     24 C         144.0337  141.3982  160.9458 C.2     1  UNL1        0.2490
     25 O         145.0946  142.4318  160.7091 O.2     1  UNL1       -0.2699
     26 C         143.4791  140.2248  157.2488 C.3     1  UNL1        0.0233
     27 C         144.2457  140.6152  158.4776 C.3     1  UNL1        0.0938
     28 C         142.5482  139.4562  160.0668 C.3     1  UNL1        0.0938
     29 C         142.9361  138.0428  160.3856 C.3     1  UNL1        0.0233
@<TRIPOS>BOND
     1    26    27    1
     2    27    23    1
     3    23    28    1
     4    28    29    1
     5    23    24   am
     6    24    25    2
     7    24    17    1
     8    17    18   ar
     9    18    19   ar
    10    19    20   ar
    11    20     1    1
    12     1     2    2
    13     2     3    1
    14     3     4    1
    15     4     5    1
    16     5     6    1
    17     6     7    1
    18     7     8    1
    19     3     9    1
    20     9    10    1
    21    10    11   ar
    22    11    12   ar
    23    12    13   ar
    24    13    14   ar
    25    14    15   ar
    26    20    21   ar
    27    21    22   ar
    28    22    17   ar
    29    15     1    1
    30     8     3    1
    31    15    10   ar
    32     7    16    1
@<TRIPOS>MOLECULE
*****
 29 32 0 0 0
SMALL
GASTEIGER

@<TRIPOS>ATOM
      1 C         140.2383  142.0374  162.3965 C.2     1  UNL1        0.0020
      2 C         140.5792  143.1676  161.4709 C.2     1  UNL1        0.0143
      3 C         139.9860  143.2144  160.0940 C.3     1  UNL1        0.1659
      4 C         140.9200  144.2977  160.5454 C.3     1  UNL1        0.0472
      5 C         141.2609  145.4278  159.6199 C.3     1  UNL1        0.0211
      6 C         140.6677  145.4746  158.2429 C.3     1  UNL1        0.0688
      7 N         139.7336  144.3912  157.7915 N.3     1  UNL1       -0.2943
      8 C         139.3928  143.2611  158.7171 C.3     1  UNL1        0.1134
      9 O         139.0519  142.1309  159.6426 O.3     1  UNL1       -0.4772
     10 C         138.7110  141.0008  160.5681 C.ar    1  UNL1        0.1386
     11 C         137.7769  139.9174  160.1167 C.ar    1  UNL1        0.0369
     12 C         137.4361  138.7873  161.0422 C.ar    1  UNL1        0.0031
     13 C         138.0293  138.7405  162.4192 C.ar    1  UNL1        0.0002
     14 C         138.9633  139.8239  162.8706 C.ar    1  UNL1        0.0030
     15 C         139.3042  140.9541  161.9450 C.ar    1  UNL1        0.0338
     16 H         140.1474  143.9743  156.9576 H       1  UNL1        0.1234
     17 C         142.0178  141.8972  166.5272 C.ar    1  UNL1        0.0536
     18 C         140.7758  142.6987  166.2725 C.ar    1  UNL1        0.0045
     19 C         140.1827  142.7455  164.8956 C.ar    1  UNL1        0.0001
     20 C         140.8315  141.9907  163.7734 C.ar    1  UNL1       -0.0001
     21 C         142.0735  141.1891  164.0281 C.ar    1  UNL1        0.0001
     22 C         142.6667  141.1424  165.4050 C.ar    1  UNL1        0.0045
     23 N         142.0825  140.8773  168.9159 N.am    1  UNL1       -0.2761
     24 C         142.6110  141.8505  167.9042 C.2     1  UNL1        0.2490
     25 O         143.7328  142.7770  168.2694 O.2     1  UNL1       -0.2699
     26 C         141.9249  141.4137  171.4531 C.3     1  UNL1        0.0233
     27 C         142.6757  140.8306  170.2928 C.3     1  UNL1        0.0938
     28 C         140.9607  139.9508  168.5507 C.3     1  UNL1        0.0938
     29 C         139.5479  140.3065  168.9075 C.3     1  UNL1        0.0233
@<TRIPOS>BOND
     1    26    27    1
     2    27    23    1
     3    23    28    1
     4    28    29    1
     5    23    24   am
     6    24    25    2
     7    24    17    1
     8    17    18   ar
     9    18    19   ar
    10    19    20   ar
    11    20     1    1
    12     1     2    2
    13     2     3    1
    14     3     4    1
    15     4     5    1
    16     5     6    1
    17     6     7    1
    18     7     8    1
    19     3     9    1
    20     9    10    1
    21    10    11   ar
    22    11    12   ar
    23    12    13   ar
    24    13    14   ar
    25    14    15   ar
    26    20    21   ar
    27    21    22   ar
    28    22    17   ar
    29    15     1    1
    30     8     3    1
    31    15    10   ar
    32     7    16    1
@<TRIPOS>MOLECULE
*****
 29 32 0 0 0
SMALL
GASTEIGER

@<TRIPOS>ATOM
      1 C         141.9159  140.3001  163.6571 C.2     1  UNL1        0.0020
      2 C         140.7376  139.5838  164.2476 C.2     1  UNL1        0.0143
      3 C         140.3460  139.8331  165.6740 C.3     1  UNL1        0.1659
      4 C         139.5593  138.8675  164.8381 C.3     1  UNL1        0.0472
      5 C         138.3811  138.1513  165.4286 C.3     1  UNL1        0.0211
      6 C         137.9896  138.4006  166.8550 C.3     1  UNL1        0.0688
      7 N         138.7763  139.3662  167.6909 N.3     1  UNL1       -0.2943
      8 C         139.9545  140.0824  167.1004 C.3     1  UNL1        0.1134
      9 O         141.1328  140.7987  166.5099 O.3     1  UNL1       -0.4772
     10 C         142.3110  141.5150  165.9194 C.ar    1  UNL1        0.1386
     11 C         143.0978  142.4806  166.7553 C.ar    1  UNL1        0.0369
     12 C         144.2760  143.1968  166.1648 C.ar    1  UNL1        0.0031
     13 C         144.6676  142.9475  164.7384 C.ar    1  UNL1        0.0002
     14 C         143.8809  141.9820  163.9025 C.ar    1  UNL1        0.0030
     15 C         142.7026  141.2656  164.4930 C.ar    1  UNL1        0.0338
     16 H         139.1222  138.8445  168.4963 H       1  UNL1        0.1234
     17 C         143.0904  139.5521  159.3780 C.ar    1  UNL1        0.0536
     18 C         143.6944  138.7284  160.4765 C.ar    1  UNL1        0.0045
     19 C         143.3028  138.9777  161.9029 C.ar    1  UNL1        0.0001
     20 C         142.3074  140.0508  162.2308 C.ar    1  UNL1       -0.0001
     21 C         141.7034  140.8746  161.1323 C.ar    1  UNL1        0.0001
     22 C         142.0949  140.6252  159.7059 C.ar    1  UNL1        0.0045
     23 N         142.6953  138.3371  157.1158 N.am    1  UNL1       -0.2761
     24 C         143.4820  139.3028  157.9516 C.2     1  UNL1        0.2490
     25 O         144.6602  140.0192  157.3611 O.2     1  UNL1       -0.2699
     26 C         144.1242  137.0536  155.3662 C.3     1  UNL1        0.0233
     27 C         143.0869  138.0878  155.6894 C.3     1  UNL1        0.0938
     28 C         141.5171  137.6207  157.7063 C.3     1  UNL1        0.0938
     29 C         140.1299  138.1435  157.4778 C.3     1  UNL1        0.0233
@<TRIPOS>BOND
     1    26    27    1
     2    27    23    1
     3    23    28    1
     4    28    29    1
     5    23    24   am
     6    24    25    2
     7    24    17    1
     8    17    18   ar
     9    18    19   ar
    10    19    20   ar
    11    20     1    1
    12     1     2    2
    13     2     3    1
    14     3     4    1
    15     4     5    1
    16     5     6    1
    17     6     7    1
    18     7     8    1
    19     3     9    1
    20     9    10    1
    21    10    11   ar
    22    11    12   ar
    23    12    13   ar
    24    13    14   ar
    25    14    15   ar
    26    20    21   ar
    27    21    22   ar
    28    22    17   ar
    29    15     1    1
    30     8     3    1
    31    15    10   ar
    32     7    16    1
@<TRIPOS>MOLECULE
*****
 29 32 0 0 0
SMALL
GASTEIGER

@<TRIPOS>ATOM
      1 C         140.4628  142.2955  161.7344 C.2     1  UNL1        0.0020
      2 C         141.9235  141.9813  161.8670 C.2     1  UNL1        0.0143
      3 C         142.6762  142.4156  163.0896 C.3     1  UNL1        0.1659
      4 C         143.3842  141.6671  161.9996 C.3     1  UNL1        0.0472
      5 C         144.8449  141.3529  162.1322 C.3     1  UNL1        0.0211
      6 C         145.5975  141.7872  163.3548 C.3     1  UNL1        0.0688
      7 N         144.8895  142.5357  164.4449 N.3     1  UNL1       -0.2943
      8 C         143.4288  142.8499  164.3123 C.3     1  UNL1        0.1134
      9 O         141.9680  143.1642  164.1797 O.3     1  UNL1       -0.4772
     10 C         140.5073  143.4784  164.0471 C.ar    1  UNL1        0.1386
     11 C         139.7992  144.2270  165.1372 C.ar    1  UNL1        0.0369
     12 C         138.3385  144.5412  165.0046 C.ar    1  UNL1        0.0031
     13 C         137.5859  144.1068  163.7820 C.ar    1  UNL1        0.0002
     14 C         138.2940  143.3583  162.6919 C.ar    1  UNL1        0.0030
     15 C         139.7547  143.0440  162.8245 C.ar    1  UNL1        0.0338
     16 H         145.3738  143.4269  164.5527 H       1  UNL1        0.1234
     17 C         138.2049  140.9925  158.0664 C.ar    1  UNL1        0.0536
     18 C         138.7316  142.3935  158.1647 C.ar    1  UNL1        0.0045
     19 C         139.4842  142.8278  159.3873 C.ar    1  UNL1        0.0001
     20 C         139.7102  141.8612  160.5117 C.ar    1  UNL1       -0.0001
     21 C         139.1835  140.4600  160.4136 C.ar    1  UNL1        0.0001
     22 C         138.4309  140.0257  159.1909 C.ar    1  UNL1        0.0045
     23 N         138.1960  140.0257  155.6549 N.am    1  UNL1       -0.2761
     24 C         137.4523  140.5581  156.8438 C.2     1  UNL1        0.2490
     25 O         135.9558  140.6562  156.8100 O.2     1  UNL1       -0.2699
     26 C         137.0443  138.1547  154.2682 C.3     1  UNL1        0.0233
     27 C         137.4434  139.5914  154.4323 C.3     1  UNL1        0.0938
     28 C         139.6925  139.9276  155.6888 C.3     1  UNL1        0.0938
     29 C         140.3509  138.6463  156.1065 C.3     1  UNL1        0.0233
@<TRIPOS>BOND
     1    26    27    1
     2    27    23    1
     3    23    28    1
     4    28    29    1
     5    23    24   am
     6    24    25    2
     7    24    17    1
     8    17    18   ar
     9    18    19   ar
    10    19    20   ar
    11    20     1    1
    12     1     2    2
    13     2     3    1
    14     3     4    1
    15     4     5    1
    16     5     6    1
    17     6     7    1
    18     7     8    1
    19     3     9    1
    20     9    10    1
    21    10    11   ar
    22    11    12   ar
    23    12    13   ar
    24    13    14   ar
    25    14    15   ar
    26    20    21   ar
    27    21    22   ar
    28    22    17   ar
    29    15     1    1
    30     8     3    1
    31    15    10   ar
    32     7    16    1
@<TRIPOS>MOLECULE
*****
 29 32 0 0 0
SMALL
GASTEIGER

@<TRIPOS>ATOM
      1 C         142.5497  138.8917  159.1799 C.2     1  UNL1        0.0020
      2 C         142.4148  137.7782  158.1838 C.2     1  UNL1        0.0143
      3 C         143.1324  137.8571  156.8690 C.3     1  UNL1        0.1659
      4 C         142.2799  136.6648  157.1878 C.3     1  UNL1        0.0472
      5 C         142.1451  135.5514  156.1917 C.3     1  UNL1        0.0211
      6 C         142.8627  135.6303  154.8769 C.3     1  UNL1        0.0688
      7 N         143.7152  136.8226  154.5581 N.3     1  UNL1       -0.2943
      8 C         143.8501  137.9360  155.5541 C.3     1  UNL1        0.1134
      9 O         143.9850  139.0494  156.5502 O.3     1  UNL1       -0.4772
     10 C         144.1198  140.1628  157.5462 C.ar    1  UNL1        0.1386
     11 C         144.9724  141.3552  157.2274 C.ar    1  UNL1        0.0369
     12 C         145.1073  142.4686  158.2235 C.ar    1  UNL1        0.0031
     13 C         144.3896  142.3897  159.5383 C.ar    1  UNL1        0.0002
     14 C         143.5371  141.1974  159.8571 C.ar    1  UNL1        0.0030
     15 C         143.4022  140.0839  158.8610 C.ar    1  UNL1        0.0338
     16 H         143.3376  137.2349  153.7049 H       1  UNL1        0.1234
     17 C         140.3969  138.6550  163.1244 C.ar    1  UNL1        0.0536
     18 C         141.7652  138.0578  162.9797 C.ar    1  UNL1        0.0045
     19 C         142.4828  138.1366  161.6649 C.ar    1  UNL1        0.0001
     20 C         141.8321  138.8128  160.4947 C.ar    1  UNL1       -0.0001
     21 C         140.4637  139.4101  160.6393 C.ar    1  UNL1        0.0001
     22 C         139.7461  139.3312  161.9541 C.ar    1  UNL1        0.0045
     23 N         139.7778  139.7096  165.4166 N.am    1  UNL1       -0.2761
     24 C         139.6793  138.5761  164.4392 C.2     1  UNL1        0.2490
     25 O         138.8630  137.3637  164.7766 O.2     1  UNL1       -0.2699
     26 C         139.7681  140.0161  167.9966 C.3     1  UNL1        0.0233
     27 C         139.0602  139.6308  166.7315 C.3     1  UNL1        0.0938
     28 C         140.5940  140.9221  165.0792 C.3     1  UNL1        0.0938
     29 C         139.9408  142.2707  165.0107 C.3     1  UNL1        0.0233
@<TRIPOS>BOND
     1    26    27    1
     2    27    23    1
     3    23    28    1
     4    28    29    1
     5    23    24   am
     6    24    25    2
     7    24    17    1
     8    17    18   ar
     9    18    19   ar
    10    19    20   ar
    11    20     1    1
    12     1     2    2
    13     2     3    1
    14     3     4    1
    15     4     5    1
    16     5     6    1
    17     6     7    1
    18     7     8    1
    19     3     9    1
    20     9    10    1
    21    10    11   ar
    22    11    12   ar
    23    12    13   ar
    24    13    14   ar
    25    14    15   ar
    26    20    21   ar
    27    21    22   ar
    28    22    17   ar
    29    15     1    1
    30     8     3    1
    31    15    10   ar
    32     7    16    1
@<TRIPOS>MOLECULE
*****
 29 32 0 0 0
SMALL
GASTEIGER

@<TRIPOS>ATOM
      1 C         141.1636  141.0028  164.5729 C.2     1  UNL1        0.0020
      2 C         141.6730  140.4378  165.8658 C.2     1  UNL1        0.0143
      3 C         141.3811  141.1409  167.1582 C.3     1  UNL1        0.1659
      4 C         142.1823  139.8728  167.1586 C.3     1  UNL1        0.0472
      5 C         142.6916  139.3078  168.4513 C.3     1  UNL1        0.0211
      6 C         142.3998  140.0109  169.7438 C.3     1  UNL1        0.0688
      7 N         141.5986  141.2790  169.7435 N.3     1  UNL1       -0.2943
      8 C         141.0893  141.8440  168.4507 C.3     1  UNL1        0.1134
      9 O         140.5799  142.4090  167.1579 O.3     1  UNL1       -0.4772
     10 C         140.0706  142.9740  165.8651 C.ar    1  UNL1        0.1386
     11 C         139.2694  144.2422  165.8647 C.ar    1  UNL1        0.0369
     12 C         138.7601  144.8071  164.5719 C.ar    1  UNL1        0.0031
     13 C         139.0519  144.1040  163.2794 C.ar    1  UNL1        0.0002
     14 C         139.8531  142.8359  163.2798 C.ar    1  UNL1        0.0030
     15 C         140.3624  142.2709  164.5726 C.ar    1  UNL1        0.0338
     16 H         142.1847  141.9977  170.1683 H       1  UNL1        0.1234
     17 C         142.0391  138.8935  160.6955 C.ar    1  UNL1        0.0536
     18 C         142.9146  140.0240  161.1487 C.ar    1  UNL1        0.0045
     19 C         142.6228  140.7271  162.4411 C.ar    1  UNL1        0.0001
     20 C         141.4554  140.2997  163.2805 C.ar    1  UNL1       -0.0001
     21 C         140.5798  139.1691  162.8274 C.ar    1  UNL1        0.0001
     22 C         140.8717  138.4660  161.5349 C.ar    1  UNL1        0.0045
     23 N         141.6721  138.6472  158.1354 N.am    1  UNL1       -0.2761
     24 C         142.3309  138.1903  159.4031 C.2     1  UNL1        0.2490
     25 O         143.2817  137.0303  159.3784 O.2     1  UNL1       -0.2699
     26 C         141.0994  136.8015  156.3988 C.3     1  UNL1        0.0233
     27 C         141.9639  137.9441  156.8429 C.3     1  UNL1        0.0938
     28 C         140.7213  139.8072  158.1600 C.3     1  UNL1        0.0938
     29 C         139.2528  139.5693  158.3516 C.3     1  UNL1        0.0233
@<TRIPOS>BOND
     1    26    27    1
     2    27    23    1
     3    23    28    1
     4    28    29    1
     5    23    24   am
     6    24    25    2
     7    24    17    1
     8    17    18   ar
     9    18    19   ar
    10    19    20   ar
    11    20     1    1
    12     1     2    2
    13     2     3    1
    14     3     4    1
    15     4     5    1
    16     5     6    1
    17     6     7    1
    18     7     8    1
    19     3     9    1
    20     9    10    1
    21    10    11   ar
    22    11    12   ar
    23    12    13   ar
    24    13    14   ar
    25    14    15   ar
    26    20    21   ar
    27    21    22   ar
    28    22    17   ar
    29    15     1    1
    30     8     3    1
    31    15    10   ar
    32     7    16    1
@<TRIPOS>MOLECULE
*****
 29 32 0 0 0
SMALL
GASTEIGER

@<TRIPOS>ATOM
      1 C         141.5515  140.0914  163.7938 C.2     1  UNL1        0.0020
      2 C         140.4069  139.4849  164.5502 C.2     1  UNL1        0.0143
      3 C         140.1738  139.8584  165.9841 C.3     1  UNL1        0.1659
      4 C         139.2624  138.8784  165.3066 C.3     1  UNL1        0.0472
      5 C         138.1179  138.2719  166.0630 C.3     1  UNL1        0.0211
      6 C         137.8847  138.6454  167.4970 C.3     1  UNL1        0.0688
      7 N         138.7961  139.6253  168.1745 N.3     1  UNL1       -0.2943
      8 C         139.9406  140.2318  167.4180 C.3     1  UNL1        0.1134
      9 O         141.0852  140.8384  166.6616 O.3     1  UNL1       -0.4772
     10 C         142.2297  141.4449  165.9052 C.ar    1  UNL1        0.1386
     11 C         143.1411  142.4249  166.5827 C.ar    1  UNL1        0.0369
     12 C         144.2856  143.0314  165.8263 C.ar    1  UNL1        0.0031
     13 C         144.5188  142.6579  164.3924 C.ar    1  UNL1        0.0002
     14 C         143.6074  141.6779  163.7149 C.ar    1  UNL1        0.0030
     15 C         142.4629  141.0714  164.4713 C.ar    1  UNL1        0.0338
     16 H         139.1970  139.1459  168.9806 H       1  UNL1        0.1234
     17 C         142.2510  138.9710  159.4920 C.ar    1  UNL1        0.0536
     18 C         142.9970  138.2612  160.5827 C.ar    1  UNL1        0.0045
     19 C         142.7638  138.6347  162.0166 C.ar    1  UNL1        0.0001
     20 C         141.7847  139.7180  162.3598 C.ar    1  UNL1       -0.0001
     21 C         141.0386  140.4278  161.2691 C.ar    1  UNL1        0.0001
     22 C         141.2718  140.0543  159.8352 C.ar    1  UNL1        0.0045
     23 N         143.4701  139.3699  157.2326 N.am    1  UNL1       -0.2761
     24 C         142.4842  138.5975  158.0581 C.2     1  UNL1        0.2490
     25 O         141.7313  137.4516  157.4495 O.2     1  UNL1       -0.2699
     26 C         142.8216  139.5601  154.7240 C.3     1  UNL1        0.0233
     27 C         143.7033  138.9964  155.7987 C.3     1  UNL1        0.0938
     28 C         144.2229  140.5158  157.8412 C.3     1  UNL1        0.0938
     29 C         143.7160  141.9179  157.6767 C.3     1  UNL1        0.0233
@<TRIPOS>BOND
     1    26    27    1
     2    27    23    1
     3    23    28    1
     4    28    29    1
     5    23    24   am
     6    24    25    2
     7    24    17    1
     8    17    18   ar
     9    18    19   ar
    10    19    20   ar
    11    20     1    1
    12     1     2    2
    13     2     3    1
    14     3     4    1
    15     4     5    1
    16     5     6    1
    17     6     7    1
    18     7     8    1
    19     3     9    1
    20     9    10    1
    21    10    11   ar
    22    11    12   ar
    23    12    13   ar
    24    13    14   ar
    25    14    15   ar
    26    20    21   ar
    27    21    22   ar
    28    22    17   ar
    29    15     1    1
    30     8     3    1
    31    15    10   ar
    32     7    16    1
