@<TRIPOS>MOLECULE
*****
 31 33 0 0 0
SMALL
GASTEIGER

@<TRIPOS>ATOM
      1 C         140.5067  142.8141  166.0038 C.ar    1  UNL1        0.0000
      2 C         139.5818  143.8820  165.4996 C.ar    1  UNL1       -0.0003
      3 C         139.5668  144.2341  164.0416 C.ar    1  UNL1       -0.0042
      4 C         140.4767  143.5184  163.0878 C.ar    1  UNL1       -0.0197
      5 C         141.4016  142.4505  163.5920 C.ar    1  UNL1       -0.0042
      6 C         141.4166  142.0984  165.0500 C.ar    1  UNL1       -0.0003
      7 C         140.9097  140.7229  169.3526 C.ar    1  UNL1        0.0503
      8 C         140.5518  141.7577  170.3778 C.ar    1  UNL1        0.0147
      9 C         140.1789  143.1447  169.9450 C.ar    1  UNL1        0.0013
     10 C         140.1639  143.4968  168.4871 C.ar    1  UNL1        0.0001
     11 C         140.5217  142.4620  167.4619 C.ar    1  UNL1        0.0012
     12 C         140.8946  141.0750  167.8946 C.ar    1  UNL1        0.0147
     13 C         143.0601  137.6507  170.6514 C.3     1  UNL1        0.0949
     14 C         142.6873  139.0376  170.2186 C.2     1  UNL1        0.2266
     15 O         143.7192  140.1263  170.2191 O.2     1  UNL1       -0.2748
     16 N         141.2826  139.3359  169.7854 N.am    1  UNL1       -0.2839
     17 H         140.6053  138.6214  169.7851 H       1  UNL1        0.1549
     18 C         140.4617  143.8704  161.6298 C.3     1  UNL1        0.0557
     19 C         141.5555  144.5725  160.8810 C.3     1  UNL1        0.0780
     20 N         141.1201  144.7183  159.4530 N.3     1  UNL1       -0.2700
     21 C         141.9090  145.3628  158.3521 C.3     1  UNL1        0.0897
     22 C         139.7571  144.1062  159.3193 C.3     1  UNL1        0.0901
     23 C         139.3503  143.5822  160.6646 C.3     1  UNL1        0.0964
     24 N         138.0587  142.8914  160.9879 N.3     1  UNL1       -0.1830
     25 H         137.5856  142.7213  160.1004 H       1  UNL1        0.1484
     26 S         138.0706  141.5873  161.7291 S.O2    1  UNL1        0.0390
     27 O         139.0015  141.0126  160.7028 O.2     1  UNL1       -0.1576
     28 O         137.1398  142.1621  162.7553 O.2     1  UNL1       -0.1576
     29 C         138.0826  140.2833  162.4702 C.3     1  UNL1        0.1457
     30 C         137.8518  138.9985  161.7313 C.3     1  UNL1        0.0270
     31 C         138.3254  140.2640  163.9503 C.3     1  UNL1        0.0270
@<TRIPOS>BOND
     1    13    14    1
     2    14    15    2
     3    14    16   am
     4    16     7    1
     5     7     8   ar
     6     8     9   ar
     7     9    10   ar
     8    10    11   ar
     9    11     1    1
    10     1     2   ar
    11     2     3   ar
    12     3     4   ar
    13    18     4    1
    14    18    19    1
    15    19    20    1
    16    20    21    1
    17    20    22    1
    18    22    23    1
    19    23    24    1
    20    24    26    1
    21    26    27    2
    22    26    28    2
    23    26    29    1
    24    29    30    1
    25    29    31    1
    26     4     5   ar
    27     5     6   ar
    28    11    12   ar
    29    12     7   ar
    30     6     1   ar
    31    23    18    1
    32    16    17    1
    33    24    25    1
@<TRIPOS>MOLECULE
*****
 31 33 0 0 0
SMALL
GASTEIGER

@<TRIPOS>ATOM
      1 C         140.6178  140.2426  166.5890 C.ar    1  UNL1        0.0000
      2 C         141.3785  140.9373  165.4988 C.ar    1  UNL1       -0.0003
      3 C         140.9443  140.7908  164.0705 C.ar    1  UNL1       -0.0042
      4 C         139.7493  139.9495  163.7325 C.ar    1  UNL1       -0.0197
      5 C         138.9886  139.2548  164.8228 C.ar    1  UNL1       -0.0042
      6 C         139.4228  139.4014  166.2510 C.ar    1  UNL1       -0.0003
      7 C         142.8372  141.1046  169.7642 C.ar    1  UNL1        0.0503
      8 C         141.9206  140.6824  170.8738 C.ar    1  UNL1        0.0147
      9 C         140.5696  140.1136  170.5553 C.ar    1  UNL1        0.0013
     10 C         140.1354  139.9670  169.1270 C.ar    1  UNL1        0.0001
     11 C         141.0520  140.3892  168.0174 C.ar    1  UNL1        0.0012
     12 C         142.4030  140.9580  168.3359 C.ar    1  UNL1        0.0147
     13 C         145.6662  143.6691  170.8458 C.3     1  UNL1        0.0949
     14 C         144.3153  143.1003  170.5272 C.2     1  UNL1        0.2266
     15 O         143.0915  143.9586  170.6531 O.2     1  UNL1       -0.2748
     16 N         144.1881  141.6734  170.0827 N.am    1  UNL1       -0.2839
     17 H         144.9914  141.1101  170.0001 H       1  UNL1        0.1549
     18 C         139.3151  139.8029  162.3042 C.3     1  UNL1        0.0557
     19 C         139.9842  138.9572  161.2616 C.3     1  UNL1        0.0780
     20 N         139.2181  139.1079  159.9808 N.3     1  UNL1       -0.2700
     21 C         139.5384  138.4375  158.6778 C.3     1  UNL1        0.0897
     22 C         138.0755  140.0468  160.2319 C.3     1  UNL1        0.0901
     23 C         138.1355  140.4763  161.6679 C.3     1  UNL1        0.0964
     24 N         137.1830  141.4145  162.3480 N.3     1  UNL1       -0.1830
     25 H         136.7737  140.9030  163.1298 H       1  UNL1        0.1484
     26 S         137.6789  142.7196  162.8965 S.O2    1  UNL1        0.0390
     27 O         137.8967  143.2235  161.5006 O.2     1  UNL1       -0.1576
     28 O         137.4611  142.2156  164.2924 O.2     1  UNL1       -0.1576
     29 C         138.1748  144.0246  163.4450 C.3     1  UNL1        0.1457
     30 C         138.9465  144.9632  162.5653 C.3     1  UNL1        0.0270
     31 C         137.8991  144.3912  164.8731 C.3     1  UNL1        0.0270
@<TRIPOS>BOND
     1    13    14    1
     2    14    15    2
     3    14    16   am
     4    16     7    1
     5     7     8   ar
     6     8     9   ar
     7     9    10   ar
     8    10    11   ar
     9    11     1    1
    10     1     2   ar
    11     2     3   ar
    12     3     4   ar
    13    18     4    1
    14    18    19    1
    15    19    20    1
    16    20    21    1
    17    20    22    1
    18    22    23    1
    19    23    24    1
    20    24    26    1
    21    26    27    2
    22    26    28    2
    23    26    29    1
    24    29    30    1
    25    29    31    1
    26     4     5   ar
    27     5     6   ar
    28    11    12   ar
    29    12     7   ar
    30     6     1   ar
    31    23    18    1
    32    16    17    1
    33    24    25    1
@<TRIPOS>MOLECULE
*****
 31 33 0 0 0
SMALL
GASTEIGER

@<TRIPOS>ATOM
      1 C         140.2707  141.3679  166.0236 C.ar    1  UNL1        0.0000
      2 C         138.9837  140.7090  165.6246 C.ar    1  UNL1       -0.0003
      3 C         138.6551  140.5224  164.1729 C.ar    1  UNL1       -0.0042
      4 C         139.6136  140.9949  163.1203 C.ar    1  UNL1       -0.0197
      5 C         140.9007  141.6539  163.5194 C.ar    1  UNL1       -0.0042
      6 C         141.2292  141.8404  164.9710 C.ar    1  UNL1       -0.0003
      7 C         141.4432  140.5861  169.7336 C.ar    1  UNL1        0.0503
      8 C         141.2564  141.9274  170.3785 C.ar    1  UNL1        0.0147
      9 C         140.7410  143.0822  169.5719 C.ar    1  UNL1        0.0013
     10 C         140.4124  142.8958  168.1202 C.ar    1  UNL1        0.0001
     11 C         140.5993  141.5545  167.4753 C.ar    1  UNL1        0.0012
     12 C         141.1147  140.3997  168.2820 C.ar    1  UNL1        0.0147
     13 C         143.4071  137.2822  170.7220 C.3     1  UNL1        0.0949
     14 C         142.8917  138.4370  169.9153 C.2     1  UNL1        0.2266
     15 O         143.3094  138.5974  168.4835 O.2     1  UNL1       -0.2748
     16 N         141.9586  139.4313  170.5403 N.am    1  UNL1       -0.2839
     17 H         141.6845  139.3260  171.4800 H       1  UNL1        0.1549
     18 C         139.2851  140.8084  161.6687 C.3     1  UNL1        0.0557
     19 C         139.7796  139.6992  160.7882 C.3     1  UNL1        0.0780
     20 N         139.2045  139.9036  159.4180 N.3     1  UNL1       -0.2700
     21 C         139.4383  139.0266  158.2238 C.3     1  UNL1        0.0897
     22 C         138.3546  141.1392  159.4517 C.3     1  UNL1        0.0901
     23 C         138.4044  141.6984  160.8426 C.3     1  UNL1        0.0964
     24 N         137.6977  142.9310  161.3232 N.3     1  UNL1       -0.1830
     25 H         136.9013  142.6166  161.8776 H       1  UNL1        0.1484
     26 S         138.4321  143.9410  162.1542 S.O2    1  UNL1        0.0390
     27 O         139.3304  144.2441  160.9918 O.2     1  UNL1       -0.1576
     28 O         137.5338  143.6378  163.3165 O.2     1  UNL1       -0.1576
     29 C         139.1666  144.9508  162.9852 C.3     1  UNL1        0.1457
     30 C         139.0327  144.9329  164.4792 C.3     1  UNL1        0.0270
     31 C         140.0350  145.9787  162.3224 C.3     1  UNL1        0.0270
@<TRIPOS>BOND
     1    13    14    1
     2    14    15    2
     3    14    16   am
     4    16     7    1
     5     7     8   ar
     6     8     9   ar
     7     9    10   ar
     8    10    11   ar
     9    11     1    1
    10     1     2   ar
    11     2     3   ar
    12     3     4   ar
    13    18     4    1
    14    18    19    1
    15    19    20    1
    16    20    21    1
    17    20    22    1
    18    22    23    1
    19    23    24    1
    20    24    26    1
    21    26    27    2
    22    26    28    2
    23    26    29    1
    24    29    30    1
    25    29    31    1
    26     4     5   ar
    27     5     6   ar
    28    11    12   ar
    29    12     7   ar
    30     6     1   ar
    31    23    18    1
    32    16    17    1
    33    24    25    1
@<TRIPOS>MOLECULE
*****
 31 33 0 0 0
SMALL
GASTEIGER

@<TRIPOS>ATOM
      1 C         142.4588  141.2656  163.8221 C.ar    1  UNL1        0.0000
      2 C         143.3992  142.4002  163.5419 C.ar    1  UNL1       -0.0003
      3 C         143.2607  143.1941  162.2767 C.ar    1  UNL1       -0.0042
      4 C         142.1819  142.8535  161.2918 C.ar    1  UNL1       -0.0197
      5 C         141.2415  141.7189  161.5721 C.ar    1  UNL1       -0.0042
      6 C         141.3800  140.9250  162.8372 C.ar    1  UNL1       -0.0003
      7 C         141.9629  140.0746  167.5751 C.ar    1  UNL1        0.0503
      8 C         142.8742  138.8839  167.6174 C.ar    1  UNL1        0.0147
      9 C         143.6470  138.4872  166.3946 C.ar    1  UNL1        0.0013
     10 C         143.5086  139.2810  165.1295 C.ar    1  UNL1        0.0001
     11 C         142.5973  140.4717  165.0872 C.ar    1  UNL1        0.0012
     12 C         141.8245  140.8685  166.3100 C.ar    1  UNL1        0.0147
     13 C         138.9622  140.5216  170.1336 C.3     1  UNL1        0.0949
     14 C         139.7350  140.1248  168.9108 C.2     1  UNL1        0.2266
     15 O         139.0528  139.3814  167.8008 O.2     1  UNL1       -0.2748
     16 N         141.1901  140.4714  168.7980 N.am    1  UNL1       -0.2839
     17 H         141.6378  140.9593  169.5265 H       1  UNL1        0.1549
     18 C         142.0434  143.6474  160.0267 C.3     1  UNL1        0.0557
     19 C         142.4971  143.2188  158.6627 C.3     1  UNL1        0.0780
     20 N         142.1610  144.3158  157.6965 N.3     1  UNL1       -0.2700
     21 C         142.4378  144.3077  156.2223 C.3     1  UNL1        0.0897
     22 C         141.4994  145.4223  158.4633 C.3     1  UNL1        0.0901
     23 C         141.4267  145.0092  159.9035 C.3     1  UNL1        0.0964
     24 N         140.8404  145.8162  161.0237 N.3     1  UNL1       -0.1830
     25 H         140.2078  146.4941  160.5985 H       1  UNL1        0.1484
     26 S         140.0729  145.1345  162.1175 S.O2    1  UNL1        0.0390
     27 O         139.0607  144.6654  161.1147 O.2     1  UNL1       -0.1576
     28 O         141.0850  145.6037  163.1201 O.2     1  UNL1       -0.1576
     29 C         139.3054  144.4529  163.2111 C.3     1  UNL1        0.1457
     30 C         139.9766  144.1393  164.5154 C.3     1  UNL1        0.0270
     31 C         137.8666  144.0848  163.0006 C.3     1  UNL1        0.0270
@<TRIPOS>BOND
     1    13    14    1
     2    14    15    2
     3    14    16   am
     4    16     7    1
     5     7     8   ar
     6     8     9   ar
     7     9    10   ar
     8    10    11   ar
     9    11     1    1
    10     1     2   ar
    11     2     3   ar
    12     3     4   ar
    13    18     4    1
    14    18    19    1
    15    19    20    1
    16    20    21    1
    17    20    22    1
    18    22    23    1
    19    23    24    1
    20    24    26    1
    21    26    27    2
    22    26    28    2
    23    26    29    1
    24    29    30    1
    25    29    31    1
    26     4     5   ar
    27     5     6   ar
    28    11    12   ar
    29    12     7   ar
    30     6     1   ar
    31    23    18    1
    32    16    17    1
    33    24    25    1
@<TRIPOS>MOLECULE
*****
 31 33 0 0 0
SMALL
GASTEIGER

@<TRIPOS>ATOM
      1 C         139.2776  141.4281  164.0030 C.ar    1  UNL1        0.0000
      2 C         138.5133  142.6859  163.7137 C.ar    1  UNL1       -0.0003
      3 C         138.6639  143.3663  162.3853 C.ar    1  UNL1       -0.0042
      4 C         139.5788  142.7889  161.3463 C.ar    1  UNL1       -0.0197
      5 C         140.3431  141.5310  161.6357 C.ar    1  UNL1       -0.0042
      6 C         140.1925  140.8507  162.9640 C.ar    1  UNL1       -0.0003
      7 C         139.8523  140.4664  167.8102 C.ar    1  UNL1        0.0503
      8 C         138.8260  139.3870  167.9879 C.ar    1  UNL1        0.0147
      9 C         137.9502  138.9880  166.8374 C.ar    1  UNL1        0.0013
     10 C         138.1008  139.6683  165.5091 C.ar    1  UNL1        0.0001
     11 C         139.1270  140.7477  165.3313 C.ar    1  UNL1        0.0012
     12 C         140.0028  141.1468  166.4819 C.ar    1  UNL1        0.0147
     13 C         142.9766  140.6759  170.2483 C.3     1  UNL1        0.0949
     14 C         142.1009  140.2769  169.0978 C.2     1  UNL1        0.2266
     15 O         142.5980  139.2892  168.0841 O.2     1  UNL1       -0.2748
     16 N         140.7280  140.8655  168.9608 N.am    1  UNL1       -0.2839
     17 H         140.4018  141.5137  169.6260 H       1  UNL1        0.1549
     18 C         139.7293  143.4692  160.0180 C.3     1  UNL1        0.0557
     19 C         139.0832  143.0458  158.7323 C.3     1  UNL1        0.0780
     20 N         139.5070  144.0073  157.6618 N.3     1  UNL1       -0.2700
     21 C         139.0951  143.9596  156.2203 C.3     1  UNL1        0.0897
     22 C         140.4151  145.0250  158.2861 C.3     1  UNL1        0.0901
     23 C         140.5525  144.6924  159.7423 C.3     1  UNL1        0.0964
     24 N         141.3697  145.4501  160.7464 N.3     1  UNL1       -0.1830
     25 H         140.7240  146.0522  161.2573 H       1  UNL1        0.1484
     26 S         142.1737  144.7080  161.7726 S.O2    1  UNL1        0.0390
     27 O         141.4052  145.3884  162.8665 O.2     1  UNL1       -0.1576
     28 O         142.9420  144.0277  160.6786 O.2     1  UNL1       -0.1576
     29 C         142.9776  143.9661  162.7987 C.3     1  UNL1        0.1457
     30 C         144.3839  143.5458  162.4894 C.3     1  UNL1        0.0270
     31 C         142.3753  143.6443  164.1342 C.3     1  UNL1        0.0270
@<TRIPOS>BOND
     1    13    14    1
     2    14    15    2
     3    14    16   am
     4    16     7    1
     5     7     8   ar
     6     8     9   ar
     7     9    10   ar
     8    10    11   ar
     9    11     1    1
    10     1     2   ar
    11     2     3   ar
    12     3     4   ar
    13    18     4    1
    14    18    19    1
    15    19    20    1
    16    20    21    1
    17    20    22    1
    18    22    23    1
    19    23    24    1
    20    24    26    1
    21    26    27    2
    22    26    28    2
    23    26    29    1
    24    29    30    1
    25    29    31    1
    26     4     5   ar
    27     5     6   ar
    28    11    12   ar
    29    12     7   ar
    30     6     1   ar
    31    23    18    1
    32    16    17    1
    33    24    25    1
@<TRIPOS>MOLECULE
*****
 31 33 0 0 0
SMALL
GASTEIGER

@<TRIPOS>ATOM
      1 C         140.1441  139.2655  164.3724 C.ar    1  UNL1        0.0000
      2 C         140.1994  140.4279  163.4261 C.ar    1  UNL1       -0.0003
      3 C         140.5021  140.1997  161.9747 C.ar    1  UNL1       -0.0042
      4 C         140.7495  138.8091  161.4698 C.ar    1  UNL1       -0.0197
      5 C         140.6941  137.6466  162.4163 C.ar    1  UNL1       -0.0042
      6 C         140.3915  137.8748  163.8675 C.ar    1  UNL1       -0.0003
      7 C         140.5681  140.3521  168.1658 C.ar    1  UNL1        0.0503
      8 C         139.2361  139.9501  168.7264 C.ar    1  UNL1        0.0147
      9 C         138.2068  139.3199  167.8357 C.ar    1  UNL1        0.0013
     10 C         138.5095  139.0917  166.3844 C.ar    1  UNL1        0.0001
     11 C         139.8414  139.4937  165.8238 C.ar    1  UNL1        0.0012
     12 C         140.8707  140.1239  166.7145 C.ar    1  UNL1        0.0147
     13 C         142.5553  143.0787  170.2554 C.3     1  UNL1        0.0949
     14 C         141.5260  142.4485  169.3646 C.2     1  UNL1        0.2266
     15 O         140.4253  143.2846  168.7820 O.2     1  UNL1       -0.2748
     16 N         141.5974  140.9822  169.0566 N.am    1  UNL1       -0.2839
     17 H         142.3198  140.4335  169.4390 H       1  UNL1        0.1549
     18 C         141.0522  138.5809  160.0185 C.3     1  UNL1        0.0557
     19 C         140.0499  138.5507  158.9029 C.3     1  UNL1        0.0780
     20 N         140.7885  138.2939  157.6229 N.3     1  UNL1       -0.2700
     21 C         140.1760  138.1848  156.2581 C.3     1  UNL1        0.0897
     22 C         142.2474  138.1654  157.9475 C.3     1  UNL1        0.0901
     23 C         142.4103  138.3428  159.4280 C.3     1  UNL1        0.0964
     24 N         143.7042  138.2911  160.1850 N.3     1  UNL1       -0.1830
     25 H         144.4522  138.3530  159.4943 H       1  UNL1        0.1484
     26 S         143.9997  139.3194  161.2364 S.O2    1  UNL1        0.0390
     27 O         143.9114  140.4022  160.2021 O.2     1  UNL1       -0.1576
     28 O         144.0880  138.2366  162.2706 O.2     1  UNL1       -0.1576
     29 C         144.2951  140.3476  162.2877 C.3     1  UNL1        0.1457
     30 C         144.0835  140.0214  163.7365 C.3     1  UNL1        0.0270
     31 C         144.8023  141.7022  161.8904 C.3     1  UNL1        0.0270
@<TRIPOS>BOND
     1    13    14    1
     2    14    15    2
     3    14    16   am
     4    16     7    1
     5     7     8   ar
     6     8     9   ar
     7     9    10   ar
     8    10    11   ar
     9    11     1    1
    10     1     2   ar
    11     2     3   ar
    12     3     4   ar
    13    18     4    1
    14    18    19    1
    15    19    20    1
    16    20    21    1
    17    20    22    1
    18    22    23    1
    19    23    24    1
    20    24    26    1
    21    26    27    2
    22    26    28    2
    23    26    29    1
    24    29    30    1
    25    29    31    1
    26     4     5   ar
    27     5     6   ar
    28    11    12   ar
    29    12     7   ar
    30     6     1   ar
    31    23    18    1
    32    16    17    1
    33    24    25    1
@<TRIPOS>MOLECULE
*****
 31 33 0 0 0
SMALL
GASTEIGER

@<TRIPOS>ATOM
      1 C         139.3813  140.6415  162.5948 C.ar    1  UNL1        0.0000
      2 C         140.7979  141.0193  162.2778 C.ar    1  UNL1       -0.0003
      3 C         141.0831  142.0255  161.2024 C.ar    1  UNL1       -0.0042
      4 C         139.9516  142.6538  160.4441 C.ar    1  UNL1       -0.0197
      5 C         138.5350  142.2760  160.7612 C.ar    1  UNL1       -0.0042
      6 C         138.2499  141.2698  161.8365 C.ar    1  UNL1       -0.0003
      7 C         138.5417  139.0869  166.1484 C.ar    1  UNL1        0.0503
      8 C         138.5258  137.6232  165.8209 C.ar    1  UNL1        0.0147
      9 C         138.7951  137.1656  164.4180 C.ar    1  UNL1        0.0013
     10 C         139.0802  138.1717  163.3427 C.ar    1  UNL1        0.0001
     11 C         139.0961  139.6354  163.6702 C.ar    1  UNL1        0.0012
     12 C         138.8268  140.0930  165.0731 C.ar    1  UNL1        0.0147
     13 C         139.1386  140.4385  169.8318 C.3     1  UNL1        0.0949
     14 C         139.4079  139.9809  168.4289 C.2     1  UNL1        0.2266
     15 O         140.8128  139.9597  167.9036 O.2     1  UNL1       -0.2748
     16 N         138.2724  139.5445  167.5513 N.am    1  UNL1       -0.2839
     17 H         137.3503  139.5584  167.8961 H       1  UNL1        0.1549
     18 C         140.2367  143.6599  159.3688 C.3     1  UNL1        0.0557
     19 C         140.7360  143.3563  157.9872 C.3     1  UNL1        0.0780
     20 N         140.8805  144.6551  157.2507 N.3     1  UNL1       -0.2700
     21 C         141.3521  144.8188  155.8363 C.3     1  UNL1        0.0897
     22 C         140.4705  145.7613  158.1772 C.3     1  UNL1        0.0901
     23 C         140.0727  145.1463  159.4861 C.3     1  UNL1        0.0964
     24 N         139.5947  145.8875  160.6995 N.3     1  UNL1       -0.1830
     25 H         138.5770  145.9221  160.6414 H       1  UNL1        0.1484
     26 S         139.9333  145.3803  162.0700 S.O2    1  UNL1        0.0390
     27 O         141.3939  145.5381  161.7675 O.2     1  UNL1       -0.1576
     28 O         138.4726  145.2226  162.3724 O.2     1  UNL1       -0.1576
     29 C         140.2718  144.8732  163.4404 C.3     1  UNL1        0.1457
     30 C         141.6843  144.9478  163.9400 C.3     1  UNL1        0.0270
     31 C         139.1980  144.2915  164.3113 C.3     1  UNL1        0.0270
@<TRIPOS>BOND
     1    13    14    1
     2    14    15    2
     3    14    16   am
     4    16     7    1
     5     7     8   ar
     6     8     9   ar
     7     9    10   ar
     8    10    11   ar
     9    11     1    1
    10     1     2   ar
    11     2     3   ar
    12     3     4   ar
    13    18     4    1
    14    18    19    1
    15    19    20    1
    16    20    21    1
    17    20    22    1
    18    22    23    1
    19    23    24    1
    20    24    26    1
    21    26    27    2
    22    26    28    2
    23    26    29    1
    24    29    30    1
    25    29    31    1
    26     4     5   ar
    27     5     6   ar
    28    11    12   ar
    29    12     7   ar
    30     6     1   ar
    31    23    18    1
    32    16    17    1
    33    24    25    1
@<TRIPOS>MOLECULE
*****
 31 33 0 0 0
SMALL
GASTEIGER

@<TRIPOS>ATOM
      1 C         142.1190  141.0017  163.9797 C.ar    1  UNL1        0.0000
      2 C         142.0146  142.4962  164.0517 C.ar    1  UNL1       -0.0003
      3 C         141.6748  143.2845  162.8215 C.ar    1  UNL1       -0.0042
      4 C         141.4395  142.5781  161.5194 C.ar    1  UNL1       -0.0197
      5 C         141.5440  141.0834  161.4474 C.ar    1  UNL1       -0.0042
      6 C         141.8837  140.2952  162.6776 C.ar    1  UNL1       -0.0003
      7 C         142.2242  139.8223  167.7676 C.ar    1  UNL1        0.0503
      8 C         143.1382  138.6370  167.6702 C.ar    1  UNL1        0.0147
      9 C         143.7126  138.2399  166.3426 C.ar    1  UNL1        0.0013
     10 C         143.3728  139.0281  165.1125 C.ar    1  UNL1        0.0001
     11 C         142.4588  140.2134  165.2099 C.ar    1  UNL1        0.0012
     12 C         141.8845  140.6105  166.5375 C.ar    1  UNL1        0.0147
     13 C         141.7357  141.6916  171.2342 C.3     1  UNL1        0.0949
     14 C         142.3100  141.2945  169.9066 C.2     1  UNL1        0.2266
     15 O         143.5445  141.9725  169.3905 O.2     1  UNL1       -0.2748
     16 N         141.6499  140.2194  169.0952 N.am    1  UNL1       -0.2839
     17 H         140.8396  139.7745  169.4340 H       1  UNL1        0.1549
     18 C         141.0997  143.3662  160.2892 C.3     1  UNL1        0.0557
     19 C         142.0682  144.1320  159.4373 C.3     1  UNL1        0.0780
     20 N         141.2989  144.7661  158.3165 N.3     1  UNL1       -0.2700
     21 C         141.8727  145.6234  157.2277 C.3     1  UNL1        0.0897
     22 C         139.8549  144.3922  158.4759 C.3     1  UNL1        0.0901
     23 C         139.7319  143.5271  159.6951 C.3     1  UNL1        0.0964
     24 N         138.4636  142.9280  160.2267 N.3     1  UNL1       -0.1830
     25 H         138.4238  141.9690  159.8816 H       1  UNL1        0.1484
     26 S         138.2261  142.8659  161.7065 S.O2    1  UNL1        0.0390
     27 O         138.0841  141.3751  161.6211 O.2     1  UNL1       -0.1576
     28 O         138.3681  144.3567  161.7918 O.2     1  UNL1       -0.1576
     29 C         137.9885  142.8038  163.1862 C.3     1  UNL1        0.1457
     30 C         137.9402  141.4763  163.8830 C.3     1  UNL1        0.0270
     31 C         137.7993  144.0691  163.9692 C.3     1  UNL1        0.0270
@<TRIPOS>BOND
     1    13    14    1
     2    14    15    2
     3    14    16   am
     4    16     7    1
     5     7     8   ar
     6     8     9   ar
     7     9    10   ar
     8    10    11   ar
     9    11     1    1
    10     1     2   ar
    11     2     3   ar
    12     3     4   ar
    13    18     4    1
    14    18    19    1
    15    19    20    1
    16    20    21    1
    17    20    22    1
    18    22    23    1
    19    23    24    1
    20    24    26    1
    21    26    27    2
    22    26    28    2
    23    26    29    1
    24    29    30    1
    25    29    31    1
    26     4     5   ar
    27     5     6   ar
    28    11    12   ar
    29    12     7   ar
    30     6     1   ar
    31    23    18    1
    32    16    17    1
    33    24    25    1
@<TRIPOS>MOLECULE
*****
 31 33 0 0 0
SMALL
GASTEIGER

@<TRIPOS>ATOM
      1 C         139.1082  140.5901  164.0324 C.ar    1  UNL1        0.0000
      2 C         140.2308  140.1087  163.1619 C.ar    1  UNL1       -0.0003
      3 C         140.1821  140.3374  161.6802 C.ar    1  UNL1       -0.0042
      4 C         139.0108  141.0477  161.0691 C.ar    1  UNL1       -0.0197
      5 C         137.8881  141.5292  161.9397 C.ar    1  UNL1       -0.0042
      6 C         137.9368  141.3004  163.4213 C.ar    1  UNL1       -0.0003
      7 C         140.2005  140.8759  167.8370 C.ar    1  UNL1        0.0503
      8 C         139.2544  139.9039  168.4773 C.ar    1  UNL1        0.0147
      9 C         138.2595  139.1606  167.6360 C.ar    1  UNL1        0.0013
     10 C         138.2108  139.3894  166.1544 C.ar    1  UNL1        0.0001
     11 C         139.1569  140.3614  165.5141 C.ar    1  UNL1        0.0012
     12 C         140.1518  141.1046  166.3554 C.ar    1  UNL1        0.0147
     13 C         143.5246  141.7476  169.8221 C.3     1  UNL1        0.0949
     14 C         142.5297  141.0043  168.9808 C.2     1  UNL1        0.2266
     15 O         142.8692  139.6462  168.4419 O.2     1  UNL1       -0.2748
     16 N         141.1954  141.6191  168.6783 N.am    1  UNL1       -0.2839
     17 H         140.9725  142.5105  169.0320 H       1  UNL1        0.1549
     18 C         138.9620  141.2765  159.5874 C.3     1  UNL1        0.0557
     19 C         138.0607  140.5738  158.6159 C.3     1  UNL1        0.0780
     20 N         138.3477  141.1111  157.2452 N.3     1  UNL1       -0.2700
     21 C         137.6742  140.6880  155.9735 C.3     1  UNL1        0.0897
     22 C         139.4264  142.1460  157.3696 C.3     1  UNL1        0.0901
     23 C         139.8061  142.2482  158.8172 C.3     1  UNL1        0.0964
     24 N         140.8470  143.1617  159.3932 N.3     1  UNL1       -0.1830
     25 H         141.0959  143.8246  158.6590 H       1  UNL1        0.1484
     26 S         140.5407  143.9690  160.6198 S.O2    1  UNL1        0.0390
     27 O         139.3727  144.5944  159.9163 O.2     1  UNL1       -0.1576
     28 O         141.7086  143.3436  161.3231 O.2     1  UNL1       -0.1576
     29 C         140.2343  144.7763  161.8462 C.3     1  UNL1        0.1457
     30 C         140.3223  144.1423  163.2029 C.3     1  UNL1        0.0270
     31 C         139.8397  146.2176  161.7162 C.3     1  UNL1        0.0270
@<TRIPOS>BOND
     1    13    14    1
     2    14    15    2
     3    14    16   am
     4    16     7    1
     5     7     8   ar
     6     8     9   ar
     7     9    10   ar
     8    10    11   ar
     9    11     1    1
    10     1     2   ar
    11     2     3   ar
    12     3     4   ar
    13    18     4    1
    14    18    19    1
    15    19    20    1
    16    20    21    1
    17    20    22    1
    18    22    23    1
    19    23    24    1
    20    24    26    1
    21    26    27    2
    22    26    28    2
    23    26    29    1
    24    29    30    1
    25    29    31    1
    26     4     5   ar
    27     5     6   ar
    28    11    12   ar
    29    12     7   ar
    30     6     1   ar
    31    23    18    1
    32    16    17    1
    33    24    25    1
