@<TRIPOS>MOLECULE
*****
 42 47 0 0 0
SMALL
GASTEIGER

@<TRIPOS>ATOM
      1 C         141.1917  143.9869  161.1257 C.3     1  UNL1        0.0832
      2 C         140.8997  145.4234  160.8078 C.3     1  UNL1        0.0374
      3 C         140.7174  145.8541  159.3826 C.3     1  UNL1        0.0738
      4 N         140.8270  144.8482  158.2753 N.3     1  UNL1       -0.2734
      5 C         141.1189  143.4116  158.5931 C.3     1  UNL1        0.0828
      6 C         141.3013  142.9810  160.0183 C.3     1  UNL1        0.1103
      7 C         140.6446  145.2789  156.8500 C.3     1  UNL1        0.0575
      8 C         139.7968  146.4743  156.5304 C.3     1  UNL1        0.0160
      9 C         139.6145  146.9050  155.1051 C.3     1  UNL1        0.0014
     10 C         140.2800  146.1403  153.9995 C.3     1  UNL1        0.0001
     11 C         141.1278  144.9448  154.3192 C.3     1  UNL1        0.0014
     12 C         141.3101  144.5142  155.7444 C.3     1  UNL1        0.0160
     13 O         143.8511  144.3355  162.4694 O.2     1  UNL1       -0.2684
     14 C         142.7038  143.7305  163.2228 C.2     1  UNL1        0.2669
     15 N         141.3740  143.5561  162.5509 N.am    1  UNL1       -0.3006
     16 H         140.6210  143.1590  163.0454 H       1  UNL1        0.1497
     17 C         142.8862  143.2998  164.6480 C.ar    1  UNL1        0.1761
     18 C         141.8889  142.5439  165.4752 C.ar    1  UNL1        0.0673
     19 C         142.4842  142.3263  166.8346 C.ar    1  UNL1        0.1792
     20 O         143.8495  142.9477  166.8477 O.2     1  UNL1       -0.3532
     21 N         144.0978  143.5493  165.4962 N.ar    1  UNL1       -0.0723
     22 C         141.8294  141.6126  167.9800 C.ar    1  UNL1        0.0648
     23 C         142.3477  140.2778  168.4268 C.ar    1  UNL1        0.0077
     24 C         141.6928  139.5641  169.5722 C.ar    1  UNL1        0.0299
     25 C         140.5197  140.1853  170.2707 C.ar    1  UNL1        0.1424
     26 F         139.8649  139.4716  171.4160 F       1  UNL1       -0.2041
     27 C         140.0015  141.5200  169.8239 C.ar    1  UNL1        0.0593
     28 C         140.6563  142.2337  168.6785 C.ar    1  UNL1        0.1453
     29 F         140.1380  143.5685  168.2317 F       1  UNL1       -0.2040
     30 C         141.5932  141.5444  160.3362 C.2     1  UNL1        0.2252
     31 O         140.5423  140.6905  160.9816 O.2     1  UNL1       -0.2750
     32 N         142.9361  140.9617  160.0088 N.am    1  UNL1       -0.3010
     33 H         143.6258  141.5221  159.5852 H       1  UNL1        0.1497
     34 C         143.2281  139.5252  160.3267 C.3     1  UNL1        0.1089
     35 C         143.3538  138.0406  160.1532 C.3     1  UNL1        0.0274
     36 C         142.8509  138.8879  159.0222 C.3     1  UNL1        0.0274
     37 C         143.7066  139.6635  161.7415 C.ar    1  UNL1        0.1549
     38 N         144.8012  140.6347  162.0714 N.ar    1  UNL1       -0.2276
     39 C         145.2798  140.7731  163.4863 C.ar    1  UNL1        0.1019
     40 C         144.6638  139.9403  164.5712 C.ar    1  UNL1        0.0413
     41 C         143.5693  138.9692  164.2412 C.ar    1  UNL1        0.1019
     42 N         143.0906  138.8308  162.8264 N.ar    1  UNL1       -0.2276
@<TRIPOS>BOND
     1    13    14    2
     2    14    15   am
     3     1    15    1
     4     1     2    1
     5     2     3    1
     6     3     4    1
     7     4     7    1
     8     7     8    1
     9     8     9    1
    10     9    10    1
    11    10    11    1
    12    11    12    1
    13     4     5    1
    14     5     6    1
    15     6    30    1
    16    30    31    2
    17    30    32   am
    18    32    34    1
    19    34    37    1
    20    37    38   ar
    21    38    39   ar
    22    39    40   ar
    23    40    41   ar
    24    41    42   ar
    25    34    35    1
    26    35    36    1
    27    14    17    1
    28    17    18   ar
    29    18    19   ar
    30    19    22    1
    31    22    23   ar
    32    23    24   ar
    33    24    25   ar
    34    25    26    1
    35    25    27   ar
    36    27    28   ar
    37    28    29    1
    38    19    20   ar
    39    20    21   ar
    40     6     1    1
    41    36    34    1
    42    21    17   ar
    43    12     7    1
    44    42    37   ar
    45    28    22   ar
    46    15    16    1
    47    32    33    1
@<TRIPOS>MOLECULE
*****
 42 47 0 0 0
SMALL
GASTEIGER

@<TRIPOS>ATOM
      1 C         141.8467  143.2243  159.9770 C.3     1  UNL1        0.0832
      2 C         142.8842  143.5510  158.9441 C.3     1  UNL1        0.0374
      3 C         142.5203  144.3889  157.7545 C.3     1  UNL1        0.0738
      4 N         141.1189  144.9003  157.5977 N.3     1  UNL1       -0.2734
      5 C         140.0813  144.5736  158.6305 C.3     1  UNL1        0.0828
      6 C         140.4452  143.7356  159.8202 C.3     1  UNL1        0.1103
      7 C         140.7550  145.7383  156.4079 C.3     1  UNL1        0.0575
      8 C         141.4580  145.5286  155.0996 C.3     1  UNL1        0.0160
      9 C         141.0941  146.3666  153.9099 C.3     1  UNL1        0.0014
     10 C         140.0272  147.4143  154.0286 C.3     1  UNL1        0.0001
     11 C         139.3242  147.6240  155.3370 C.3     1  UNL1        0.0014
     12 C         139.6881  146.7860  156.5266 C.3     1  UNL1        0.0160
     13 O         142.9365  144.5249  162.4510 O.2     1  UNL1       -0.2684
     14 C         142.7554  143.0366  162.4037 C.2     1  UNL1        0.2669
     15 N         142.2105  142.3863  161.1667 N.am    1  UNL1       -0.3006
     16 H         142.0917  141.4095  161.1357 H       1  UNL1        0.1497
     17 C         143.1193  142.1986  163.5934 C.ar    1  UNL1        0.1761
     18 C         142.5989  142.3759  164.9890 C.ar    1  UNL1        0.0673
     19 C         143.2254  141.3231  165.8546 C.ar    1  UNL1        0.1792
     20 O         144.1331  140.4952  164.9938 O.2     1  UNL1       -0.3532
     21 N         144.0675  141.0364  163.5963 N.ar    1  UNL1       -0.0723
     22 C         142.9863  141.1318  167.3230 C.ar    1  UNL1        0.0648
     23 C         143.0560  142.3062  168.2535 C.ar    1  UNL1        0.0077
     24 C         142.8169  142.1149  169.7219 C.ar    1  UNL1        0.0299
     25 C         142.5081  140.7491  170.2597 C.ar    1  UNL1        0.1424
     26 F         142.2690  140.5578  171.7281 F       1  UNL1       -0.2041
     27 C         142.4385  139.5748  169.3293 C.ar    1  UNL1        0.0593
     28 C         142.6776  139.7661  167.8609 C.ar    1  UNL1        0.1453
     29 F         142.6079  138.5916  166.9304 F       1  UNL1       -0.2040
     30 C         139.4077  143.4089  160.8531 C.2     1  UNL1        0.2252
     31 O         138.0685  142.8819  160.4304 O.2     1  UNL1       -0.2750
     32 N         139.7095  143.6093  162.3087 N.am    1  UNL1       -0.3010
     33 H         140.5884  143.9552  162.5861 H       1  UNL1        0.1497
     34 C         138.6720  143.2826  163.3416 C.3     1  UNL1        0.1089
     35 C         137.4550  143.4158  164.2083 C.3     1  UNL1        0.0274
     36 C         137.7947  144.4934  163.2216 C.3     1  UNL1        0.0274
     37 C         139.1890  141.9584  163.8203 C.ar    1  UNL1        0.1549
     38 N         139.0638  141.5831  165.2672 N.ar    1  UNL1       -0.2276
     39 C         139.5808  140.2588  165.7460 C.ar    1  UNL1        0.1019
     40 C         140.2229  139.3100  164.7778 C.ar    1  UNL1        0.0413
     41 C         140.3480  139.6853  163.3310 C.ar    1  UNL1        0.1019
     42 N         139.8311  141.0095  162.8522 N.ar    1  UNL1       -0.2276
@<TRIPOS>BOND
     1    13    14    2
     2    14    15   am
     3     1    15    1
     4     1     2    1
     5     2     3    1
     6     3     4    1
     7     4     7    1
     8     7     8    1
     9     8     9    1
    10     9    10    1
    11    10    11    1
    12    11    12    1
    13     4     5    1
    14     5     6    1
    15     6    30    1
    16    30    31    2
    17    30    32   am
    18    32    34    1
    19    34    37    1
    20    37    38   ar
    21    38    39   ar
    22    39    40   ar
    23    40    41   ar
    24    41    42   ar
    25    34    35    1
    26    35    36    1
    27    14    17    1
    28    17    18   ar
    29    18    19   ar
    30    19    22    1
    31    22    23   ar
    32    23    24   ar
    33    24    25   ar
    34    25    26    1
    35    25    27   ar
    36    27    28   ar
    37    28    29    1
    38    19    20   ar
    39    20    21   ar
    40     6     1    1
    41    36    34    1
    42    21    17   ar
    43    12     7    1
    44    42    37   ar
    45    28    22   ar
    46    15    16    1
    47    32    33    1
@<TRIPOS>MOLECULE
*****
 42 47 0 0 0
SMALL
GASTEIGER

@<TRIPOS>ATOM
      1 C         143.0527  141.0052  160.1465 C.3     1  UNL1        0.0832
      2 C         143.7278  139.9922  159.2702 C.3     1  UNL1        0.0374
      3 C         144.4532  140.4345  158.0340 C.3     1  UNL1        0.0738
      4 N         144.5034  141.8898  157.6741 N.3     1  UNL1       -0.2734
      5 C         143.8283  142.9028  158.5504 C.3     1  UNL1        0.0828
      6 C         143.1029  142.4605  159.7866 C.3     1  UNL1        0.1103
      7 C         145.2288  142.3321  156.4379 C.3     1  UNL1        0.0575
      8 C         144.4594  142.8780  155.2717 C.3     1  UNL1        0.0160
      9 C         145.1848  143.3203  154.0354 C.3     1  UNL1        0.0014
     10 C         146.6796  143.2166  153.9655 C.3     1  UNL1        0.0001
     11 C         147.4490  142.6707  155.1317 C.3     1  UNL1        0.0014
     12 C         146.7236  142.2285  156.3679 C.3     1  UNL1        0.0160
     13 O         144.6014  140.1245  162.5602 O.2     1  UNL1       -0.2684
     14 C         143.1016  140.1226  162.5896 C.2     1  UNL1        0.2669
     15 N         142.3273  140.5629  161.3827 N.am    1  UNL1       -0.3006
     16 H         141.3430  140.5617  161.4020 H       1  UNL1        0.1497
     17 C         142.3763  139.6803  163.8258 C.ar    1  UNL1        0.1761
     18 C         142.4640  140.3246  165.1775 C.ar    1  UNL1        0.0673
     19 C         141.5778  139.5586  166.1145 C.ar    1  UNL1        0.1792
     20 O         140.9424  138.4409  165.3418 O.2     1  UNL1       -0.3532
     21 N         141.4359  138.5161  163.9273 N.ar    1  UNL1       -0.0723
     22 C         141.3645  139.8577  167.5688 C.ar    1  UNL1        0.0648
     23 C         142.5436  140.0531  168.4752 C.ar    1  UNL1        0.0077
     24 C         142.3303  140.3523  169.9294 C.ar    1  UNL1        0.0299
     25 C         140.9378  140.4559  170.4774 C.ar    1  UNL1        0.1424
     26 F         140.7245  140.7551  171.9317 F       1  UNL1       -0.2041
     27 C         139.7588  140.2605  169.5711 C.ar    1  UNL1        0.0593
     28 C         139.9721  139.9614  168.1168 C.ar    1  UNL1        0.1453
     29 F         138.7930  139.7659  167.2104 F       1  UNL1       -0.2040
     30 C         142.4277  143.4736  160.6630 C.2     1  UNL1        0.2252
     31 O         143.2387  144.2991  161.6173 O.2     1  UNL1       -0.2750
     32 N         140.9415  143.6610  160.5850 N.am    1  UNL1       -0.3010
     33 H         140.4092  143.1192  159.9586 H       1  UNL1        0.1497
     34 C         140.2663  144.6740  161.4613 C.3     1  UNL1        0.1089
     35 C         139.7009  145.9840  161.9240 C.3     1  UNL1        0.0274
     36 C         140.3481  145.8812  160.5746 C.3     1  UNL1        0.0274
     37 C         139.9501  143.8187  162.6522 C.ar    1  UNL1        0.1549
     38 N         139.9946  144.4071  164.0313 N.ar    1  UNL1       -0.2276
     39 C         139.6783  143.5518  165.2223 C.ar    1  UNL1        0.1019
     40 C         139.3177  142.1081  165.0342 C.ar    1  UNL1        0.0413
     41 C         139.2733  141.5196  163.6552 C.ar    1  UNL1        0.1019
     42 N         139.5895  142.3748  162.4642 N.ar    1  UNL1       -0.2276
@<TRIPOS>BOND
     1    13    14    2
     2    14    15   am
     3     1    15    1
     4     1     2    1
     5     2     3    1
     6     3     4    1
     7     4     7    1
     8     7     8    1
     9     8     9    1
    10     9    10    1
    11    10    11    1
    12    11    12    1
    13     4     5    1
    14     5     6    1
    15     6    30    1
    16    30    31    2
    17    30    32   am
    18    32    34    1
    19    34    37    1
    20    37    38   ar
    21    38    39   ar
    22    39    40   ar
    23    40    41   ar
    24    41    42   ar
    25    34    35    1
    26    35    36    1
    27    14    17    1
    28    17    18   ar
    29    18    19   ar
    30    19    22    1
    31    22    23   ar
    32    23    24   ar
    33    24    25   ar
    34    25    26    1
    35    25    27   ar
    36    27    28   ar
    37    28    29    1
    38    19    20   ar
    39    20    21   ar
    40     6     1    1
    41    36    34    1
    42    21    17   ar
    43    12     7    1
    44    42    37   ar
    45    28    22   ar
    46    15    16    1
    47    32    33    1
@<TRIPOS>MOLECULE
*****
 42 47 0 0 0
SMALL
GASTEIGER

@<TRIPOS>ATOM
      1 C         142.5709  139.6877  161.0016 C.3     1  UNL1        0.0832
      2 C         142.8612  138.2167  160.9594 C.3     1  UNL1        0.0374
      3 C         142.9110  137.4996  159.6429 C.3     1  UNL1        0.0738
      4 N         142.6704  138.2534  158.3686 N.3     1  UNL1       -0.2734
      5 C         142.3801  139.7244  158.4108 C.3     1  UNL1        0.0828
      6 C         142.3303  140.4416  159.7273 C.3     1  UNL1        0.1103
      7 C         142.7202  137.5361  157.0521 C.3     1  UNL1        0.0575
      8 C         142.8934  136.0467  157.0156 C.3     1  UNL1        0.0160
      9 C         142.9432  135.3294  155.6990 C.3     1  UNL1        0.0014
     10 C         142.8197  136.1017  154.4191 C.3     1  UNL1        0.0001
     11 C         142.6465  137.5913  154.4557 C.3     1  UNL1        0.0014
     12 C         142.5968  138.3085  155.7721 C.3     1  UNL1        0.0160
     13 O         145.0920  140.7665  162.2182 O.2     1  UNL1       -0.2684
     14 C         143.7817  140.9444  162.9264 C.2     1  UNL1        0.2669
     15 N         142.5211  140.4050  162.3181 N.am    1  UNL1       -0.3006
     16 H         141.6611  140.5217  162.7829 H       1  UNL1        0.1497
     17 C         143.7320  141.6616  164.2428 C.ar    1  UNL1        0.1761
     18 C         142.8525  141.3097  165.4059 C.ar    1  UNL1        0.0673
     19 C         143.1299  142.2873  166.5093 C.ar    1  UNL1        0.1792
     20 O         144.1809  143.2433  166.0281 O.2     1  UNL1       -0.3532
     21 N         144.5530  142.8566  164.6274 N.ar    1  UNL1       -0.0723
     22 C         142.4720  142.3056  167.8572 C.ar    1  UNL1        0.0648
     23 C         143.2865  142.0608  169.0927 C.ar    1  UNL1        0.0077
     24 C         142.6286  142.0791  170.4406 C.ar    1  UNL1        0.0299
     25 C         141.1561  142.3423  170.5529 C.ar    1  UNL1        0.1424
     26 F         140.4982  142.3606  171.9007 F       1  UNL1       -0.2041
     27 C         140.3417  142.5871  169.3174 C.ar    1  UNL1        0.0593
     28 C         140.9996  142.5687  167.9695 C.ar    1  UNL1        0.1453
     29 F         140.1851  142.8135  166.7339 F       1  UNL1       -0.2040
     30 C         142.0400  141.9126  159.7695 C.2     1  UNL1        0.2252
     31 O         143.0551  142.8615  160.3342 O.2     1  UNL1       -0.2750
     32 N         140.7345  142.4347  159.2469 N.am    1  UNL1       -0.3010
     33 H         140.0682  141.8119  158.8763 H       1  UNL1        0.1497
     34 C         140.4441  143.9057  159.2891 C.3     1  UNL1        0.1089
     35 C         140.3988  145.3460  158.8726 C.3     1  UNL1        0.0274
     36 C         141.0489  144.3281  157.9830 C.3     1  UNL1        0.0274
     37 C         139.7385  143.9941  160.6098 C.ar    1  UNL1        0.1549
     38 N         140.1638  145.0179  161.6203 N.ar    1  UNL1       -0.2276
     39 C         139.4582  145.1064  162.9411 C.ar    1  UNL1        0.1019
     40 C         138.3272  144.1711  163.2512 C.ar    1  UNL1        0.0413
     41 C         137.9019  143.1474  162.2407 C.ar    1  UNL1        0.1019
     42 N         138.6075  143.0589  160.9200 N.ar    1  UNL1       -0.2276
@<TRIPOS>BOND
     1    13    14    2
     2    14    15   am
     3     1    15    1
     4     1     2    1
     5     2     3    1
     6     3     4    1
     7     4     7    1
     8     7     8    1
     9     8     9    1
    10     9    10    1
    11    10    11    1
    12    11    12    1
    13     4     5    1
    14     5     6    1
    15     6    30    1
    16    30    31    2
    17    30    32   am
    18    32    34    1
    19    34    37    1
    20    37    38   ar
    21    38    39   ar
    22    39    40   ar
    23    40    41   ar
    24    41    42   ar
    25    34    35    1
    26    35    36    1
    27    14    17    1
    28    17    18   ar
    29    18    19   ar
    30    19    22    1
    31    22    23   ar
    32    23    24   ar
    33    24    25   ar
    34    25    26    1
    35    25    27   ar
    36    27    28   ar
    37    28    29    1
    38    19    20   ar
    39    20    21   ar
    40     6     1    1
    41    36    34    1
    42    21    17   ar
    43    12     7    1
    44    42    37   ar
    45    28    22   ar
    46    15    16    1
    47    32    33    1
@<TRIPOS>MOLECULE
*****
 42 47 0 0 0
SMALL
GASTEIGER

@<TRIPOS>ATOM
      1 C         140.9837  140.1018  163.3170 C.3     1  UNL1        0.0832
      2 C         140.8327  139.0817  164.4062 C.3     1  UNL1        0.0374
      3 C         140.5927  139.5235  165.8194 C.3     1  UNL1        0.0738
      4 N         140.5037  140.9854  166.1434 N.3     1  UNL1       -0.2734
      5 C         140.6548  142.0055  165.0542 C.3     1  UNL1        0.0828
      6 C         140.8948  141.5637  163.6410 C.3     1  UNL1        0.1103
      7 C         140.2637  141.4271  167.5567 C.3     1  UNL1        0.0575
      8 C         139.6568  140.4774  168.5465 C.3     1  UNL1        0.0160
      9 C         139.4168  140.9192  169.9598 C.3     1  UNL1        0.0014
     10 C         139.7837  142.3106  170.3832 C.3     1  UNL1        0.0001
     11 C         140.3907  143.2603  169.3934 C.3     1  UNL1        0.0014
     12 C         140.6306  142.8185  167.9801 C.3     1  UNL1        0.0160
     13 O         143.7704  139.4906  162.3893 O.2     1  UNL1       -0.2684
     14 C         142.6171  139.3545  161.4398 C.2     1  UNL1        0.2669
     15 N         141.2237  139.6601  161.9037 N.am    1  UNL1       -0.3006
     16 H         140.4668  139.5708  161.2806 H       1  UNL1        0.1497
     17 C         142.8571  138.9128  160.0266 C.ar    1  UNL1        0.1761
     18 C         142.2034  137.7481  159.3438 C.ar    1  UNL1        0.0673
     19 C         142.7353  137.6737  157.9433 C.ar    1  UNL1        0.1792
     20 O         143.7178  138.7924  157.7605 O.2     1  UNL1       -0.3532
     21 N         143.7930  139.5582  159.0481 N.ar    1  UNL1       -0.0723
     22 C         142.3521  136.6588  156.9073 C.ar    1  UNL1        0.0648
     23 C         143.0696  135.3430  156.8449 C.ar    1  UNL1        0.0077
     24 C         142.6864  134.3282  155.8090 C.ar    1  UNL1        0.0299
     25 C         141.5856  134.6291  154.8355 C.ar    1  UNL1        0.1424
     26 F         141.2023  133.6142  153.7996 F       1  UNL1       -0.2041
     27 C         140.8681  135.9447  154.8980 C.ar    1  UNL1        0.0593
     28 C         141.2513  136.9596  155.9339 C.ar    1  UNL1        0.1453
     29 F         140.5337  138.2754  155.9963 F       1  UNL1       -0.2040
     30 C         141.0459  142.5839  162.5517 C.2     1  UNL1        0.2252
     31 O         142.3772  142.7830  161.8901 O.2     1  UNL1       -0.2750
     32 N         139.8656  143.4048  162.1241 N.am    1  UNL1       -0.3010
     33 H         138.9918  143.2741  162.5583 H       1  UNL1        0.1497
     34 C         140.0166  144.4250  161.0348 C.3     1  UNL1        0.1089
     35 C         140.2489  145.7459  160.3630 C.3     1  UNL1        0.0274
     36 C         140.3029  145.6453  161.8587 C.3     1  UNL1        0.0274
     37 C         139.7828  143.5590  159.8326 C.ar    1  UNL1        0.1549
     38 N         138.4524  142.8952  159.6337 N.ar    1  UNL1       -0.2276
     39 C         138.2185  142.0291  158.4315 C.ar    1  UNL1        0.1019
     40 C         139.3150  141.8269  157.4282 C.ar    1  UNL1        0.0413
     41 C         140.6454  142.4906  157.6271 C.ar    1  UNL1        0.1019
     42 N         140.8793  143.3566  158.8293 N.ar    1  UNL1       -0.2276
@<TRIPOS>BOND
     1    13    14    2
     2    14    15   am
     3     1    15    1
     4     1     2    1
     5     2     3    1
     6     3     4    1
     7     4     7    1
     8     7     8    1
     9     8     9    1
    10     9    10    1
    11    10    11    1
    12    11    12    1
    13     4     5    1
    14     5     6    1
    15     6    30    1
    16    30    31    2
    17    30    32   am
    18    32    34    1
    19    34    37    1
    20    37    38   ar
    21    38    39   ar
    22    39    40   ar
    23    40    41   ar
    24    41    42   ar
    25    34    35    1
    26    35    36    1
    27    14    17    1
    28    17    18   ar
    29    18    19   ar
    30    19    22    1
    31    22    23   ar
    32    23    24   ar
    33    24    25   ar
    34    25    26    1
    35    25    27   ar
    36    27    28   ar
    37    28    29    1
    38    19    20   ar
    39    20    21   ar
    40     6     1    1
    41    36    34    1
    42    21    17   ar
    43    12     7    1
    44    42    37   ar
    45    28    22   ar
    46    15    16    1
    47    32    33    1
@<TRIPOS>MOLECULE
*****
 42 47 0 0 0
SMALL
GASTEIGER

@<TRIPOS>ATOM
      1 C         141.0142  139.4881  162.9828 C.3     1  UNL1        0.0832
      2 C         141.1086  138.5163  164.1214 C.3     1  UNL1        0.0374
      3 C         140.8517  138.9784  165.5251 C.3     1  UNL1        0.0738
      4 N         140.5003  140.4124  165.7901 N.3     1  UNL1       -0.2734
      5 C         140.4058  141.3842  164.6515 C.3     1  UNL1        0.0828
      6 C         140.6628  140.9221  163.2478 C.3     1  UNL1        0.1103
      7 C         140.2433  140.8745  167.1939 C.3     1  UNL1        0.0575
      8 C         139.5125  139.9841  168.1547 C.3     1  UNL1        0.0160
      9 C         139.2556  140.4462  169.5585 C.3     1  UNL1        0.0014
     10 C         139.7294  141.7987  170.0014 C.3     1  UNL1        0.0001
     11 C         140.4602  142.6891  169.0405 C.3     1  UNL1        0.0014
     12 C         140.7172  142.2270  167.6368 C.3     1  UNL1        0.0160
     13 O         143.7754  139.6728  161.8246 O.2     1  UNL1       -0.2684
     14 C         142.6518  139.1184  160.9999 C.2     1  UNL1        0.2669
     15 N         141.2711  139.0260  161.5790 N.am    1  UNL1       -0.3006
     16 H         140.5336  138.6621  161.0378 H       1  UNL1        0.1497
     17 C         142.9087  138.6563  159.5962 C.ar    1  UNL1        0.1761
     18 C         142.5149  137.3291  159.0188 C.ar    1  UNL1        0.0673
     19 C         142.9674  137.2928  157.5892 C.ar    1  UNL1        0.1792
     20 O         143.6410  138.5977  157.2830 O.2     1  UNL1       -0.3532
     21 N         143.6047  139.4403  158.5234 N.ar    1  UNL1       -0.0723
     22 C         142.7794  136.1521  156.6335 C.ar    1  UNL1        0.0648
     23 C         142.2957  136.4146  155.2381 C.ar    1  UNL1        0.0077
     24 C         142.1077  135.2738  154.2825 C.ar    1  UNL1        0.0299
     25 C         142.4034  133.8706  154.7222 C.ar    1  UNL1        0.1424
     26 F         142.2154  132.7298  153.7665 F       1  UNL1       -0.2041
     27 C         142.8872  133.6081  156.1175 C.ar    1  UNL1        0.0593
     28 C         143.0752  134.7488  157.0732 C.ar    1  UNL1        0.1453
     29 F         143.5589  134.4863  158.4686 F       1  UNL1       -0.2040
     30 C         140.5683  141.8940  162.1091 C.2     1  UNL1        0.2252
     31 O         139.7282  141.5657  160.9106 O.2     1  UNL1       -0.2750
     32 N         141.3141  143.1941  162.1689 N.am    1  UNL1       -0.3010
     33 H         141.8654  143.4096  162.9555 H       1  UNL1        0.1497
     34 C         141.2197  144.1660  161.0303 C.3     1  UNL1        0.1089
     35 C         140.7324  145.3079  160.1885 C.3     1  UNL1        0.0274
     36 C         140.0557  144.9931  161.4896 C.3     1  UNL1        0.0274
     37 C         142.3508  143.6764  160.1755 C.ar    1  UNL1        0.1549
     38 N         143.5680  143.0759  160.8141 N.ar    1  UNL1       -0.2276
     39 C         144.6993  142.5863  159.9592 C.ar    1  UNL1        0.1019
     40 C         144.6132  142.6971  158.4659 C.ar    1  UNL1        0.0413
     41 C         143.3960  143.2976  157.8273 C.ar    1  UNL1        0.1019
     42 N         142.2648  143.7872  158.6820 N.ar    1  UNL1       -0.2276
@<TRIPOS>BOND
     1    13    14    2
     2    14    15   am
     3     1    15    1
     4     1     2    1
     5     2     3    1
     6     3     4    1
     7     4     7    1
     8     7     8    1
     9     8     9    1
    10     9    10    1
    11    10    11    1
    12    11    12    1
    13     4     5    1
    14     5     6    1
    15     6    30    1
    16    30    31    2
    17    30    32   am
    18    32    34    1
    19    34    37    1
    20    37    38   ar
    21    38    39   ar
    22    39    40   ar
    23    40    41   ar
    24    41    42   ar
    25    34    35    1
    26    35    36    1
    27    14    17    1
    28    17    18   ar
    29    18    19   ar
    30    19    22    1
    31    22    23   ar
    32    23    24   ar
    33    24    25   ar
    34    25    26    1
    35    25    27   ar
    36    27    28   ar
    37    28    29    1
    38    19    20   ar
    39    20    21   ar
    40     6     1    1
    41    36    34    1
    42    21    17   ar
    43    12     7    1
    44    42    37   ar
    45    28    22   ar
    46    15    16    1
    47    32    33    1
@<TRIPOS>MOLECULE
*****
 42 47 0 0 0
SMALL
GASTEIGER

@<TRIPOS>ATOM
      1 C         142.5978  138.7706  161.0572 C.3     1  UNL1        0.0832
      2 C         143.2238  137.4867  160.5995 C.3     1  UNL1        0.0374
      3 C         143.1178  137.0713  159.1621 C.3     1  UNL1        0.0738
      4 N         142.3858  137.9399  158.1824 N.3     1  UNL1       -0.2734
      5 C         141.7598  139.2238  158.6401 C.3     1  UNL1        0.0828
      6 C         141.8658  139.6392  160.0775 C.3     1  UNL1        0.1103
      7 C         142.2798  137.5245  156.7449 C.3     1  UNL1        0.0575
      8 C         141.4162  138.3063  155.8000 C.3     1  UNL1        0.0160
      9 C         141.3103  137.8909  154.3625 C.3     1  UNL1        0.0014
     10 C         142.0679  136.6936  153.8700 C.3     1  UNL1        0.0001
     11 C         142.9315  135.9118  154.8150 C.3     1  UNL1        0.0014
     12 C         143.0374  136.3272  156.2524 C.3     1  UNL1        0.0160
     13 O         141.1882  137.1910  163.1828 O.2     1  UNL1       -0.2684
     14 C         141.9990  138.3962  163.5575 C.2     1  UNL1        0.2669
     15 N         142.7037  139.1860  162.4947 N.am    1  UNL1       -0.3006
     16 H         143.2358  139.9770  162.7406 H       1  UNL1        0.1497
     17 C         142.1049  138.8116  164.9949 C.ar    1  UNL1        0.1761
     18 C         141.1995  139.7752  165.7033 C.ar    1  UNL1        0.0673
     19 C         141.6699  139.8955  167.1225 C.ar    1  UNL1        0.1792
     20 O         142.8660  139.0061  167.2913 O.2     1  UNL1       -0.3532
     21 N         143.1348  138.3362  165.9764 N.ar    1  UNL1       -0.0723
     22 C         141.0526  140.7542  168.1862 C.ar    1  UNL1        0.0648
     23 C         139.8517  140.2661  168.9410 C.ar    1  UNL1        0.0077
     24 C         139.2344  141.1249  170.0047 C.ar    1  UNL1        0.0299
     25 C         139.8180  142.4718  170.3136 C.ar    1  UNL1        0.1424
     26 F         139.2007  143.3305  171.3772 F       1  UNL1       -0.2041
     27 C         141.0188  142.9598  169.5588 C.ar    1  UNL1        0.0593
     28 C         141.6361  142.1010  168.4951 C.ar    1  UNL1        0.1453
     29 F         142.8370  142.5891  167.7403 F       1  UNL1       -0.2040
     30 C         141.2397  140.9232  160.5354 C.2     1  UNL1        0.2252
     31 O         140.1758  140.9037  161.5925 O.2     1  UNL1       -0.2750
     32 N         141.6777  142.2266  159.9360 N.am    1  UNL1       -0.3010
     33 H         142.3760  142.2394  159.2421 H       1  UNL1        0.1497
     34 C         141.0517  143.5105  160.3937 C.3     1  UNL1        0.1089
     35 C         140.1127  144.6788  160.4515 C.3     1  UNL1        0.0274
     36 C         139.9329  143.6233  159.4009 C.3     1  UNL1        0.0274
     37 C         141.9531  143.8437  161.5454 C.ar    1  UNL1        0.1549
     38 N         143.4421  143.7981  161.3701 N.ar    1  UNL1       -0.2276
     39 C         144.3435  144.1312  162.5219 C.ar    1  UNL1        0.1019
     40 C         143.7559  144.5099  163.8490 C.ar    1  UNL1        0.0413
     41 C         142.2668  144.5555  164.0243 C.ar    1  UNL1        0.1019
     42 N         141.3654  144.2224  162.8726 N.ar    1  UNL1       -0.2276
@<TRIPOS>BOND
     1    13    14    2
     2    14    15   am
     3     1    15    1
     4     1     2    1
     5     2     3    1
     6     3     4    1
     7     4     7    1
     8     7     8    1
     9     8     9    1
    10     9    10    1
    11    10    11    1
    12    11    12    1
    13     4     5    1
    14     5     6    1
    15     6    30    1
    16    30    31    2
    17    30    32   am
    18    32    34    1
    19    34    37    1
    20    37    38   ar
    21    38    39   ar
    22    39    40   ar
    23    40    41   ar
    24    41    42   ar
    25    34    35    1
    26    35    36    1
    27    14    17    1
    28    17    18   ar
    29    18    19   ar
    30    19    22    1
    31    22    23   ar
    32    23    24   ar
    33    24    25   ar
    34    25    26    1
    35    25    27   ar
    36    27    28   ar
    37    28    29    1
    38    19    20   ar
    39    20    21   ar
    40     6     1    1
    41    36    34    1
    42    21    17   ar
    43    12     7    1
    44    42    37   ar
    45    28    22   ar
    46    15    16    1
    47    32    33    1
@<TRIPOS>MOLECULE
*****
 42 47 0 0 0
SMALL
GASTEIGER

@<TRIPOS>ATOM
      1 C         142.1368  139.3428  161.1177 C.3     1  UNL1        0.0832
      2 C         142.4317  138.0067  160.5031 C.3     1  UNL1        0.0374
      3 C         142.6561  137.8945  159.0243 C.3     1  UNL1        0.0738
      4 N         142.5855  139.1184  158.1600 N.3     1  UNL1       -0.2734
      5 C         142.2906  140.4546  158.7746 C.3     1  UNL1        0.0828
      6 C         142.0662  140.5668  160.2534 C.3     1  UNL1        0.1103
      7 C         142.8099  139.0062  156.6811 C.3     1  UNL1        0.0575
      8 C         144.1484  139.3492  156.0974 C.3     1  UNL1        0.0160
      9 C         144.3728  139.2369  154.6185 C.3     1  UNL1        0.0014
     10 C         143.2586  138.7817  153.7233 C.3     1  UNL1        0.0001
     11 C         141.9200  138.4388  154.3071 C.3     1  UNL1        0.0014
     12 C         141.6957  138.5510  155.7859 C.3     1  UNL1        0.0160
     13 O         144.4372  139.0061  163.0137 O.2     1  UNL1       -0.2684
     14 C         143.0626  139.2867  163.5446 C.2     1  UNL1        0.2669
     15 N         141.9124  139.4550  162.5966 N.am    1  UNL1       -0.3006
     16 H         141.0102  139.6392  162.9451 H       1  UNL1        0.1497
     17 C         142.8383  139.3989  165.0235 C.ar    1  UNL1        0.1761
     18 C         141.9763  140.4168  165.7098 C.ar    1  UNL1        0.0673
     19 C         142.0418  140.1599  167.1861 C.ar    1  UNL1        0.1792
     20 O         142.9443  138.9833  167.4123 O.2     1  UNL1       -0.3532
     21 N         143.4365  138.5130  166.0757 N.ar    1  UNL1       -0.0723
     22 C         141.3299  140.9423  168.2496 C.ar    1  UNL1        0.0648
     23 C         140.0439  140.4275  168.8253 C.ar    1  UNL1        0.0077
     24 C         139.3320  141.2099  169.8888 C.ar    1  UNL1        0.0299
     25 C         139.9060  142.5070  170.3766 C.ar    1  UNL1        0.1424
     26 F         139.1941  143.2893  171.4401 F       1  UNL1       -0.2041
     27 C         141.1919  143.0217  169.8010 C.ar    1  UNL1        0.0593
     28 C         141.9038  142.2393  168.7375 C.ar    1  UNL1        0.1453
     29 F         143.1898  142.7541  168.1618 F       1  UNL1       -0.2040
     30 C         141.7713  141.9029  160.8681 C.2     1  UNL1        0.2252
     31 O         142.6229  142.4163  161.9910 O.2     1  UNL1       -0.2750
     32 N         140.6247  142.7257  160.3597 N.am    1  UNL1       -0.3010
     33 H         140.0657  142.3887  159.6226 H       1  UNL1        0.1497
     34 C         140.3297  144.0618  160.9742 C.3     1  UNL1        0.1089
     35 C         140.3346  145.5462  161.1895 C.3     1  UNL1        0.0274
     36 C         141.0907  144.9529  160.0378 C.3     1  UNL1        0.0274
     37 C         139.4663  143.6347  162.1240 C.ar    1  UNL1        0.1549
     38 N         138.3592  142.6468  161.9042 N.ar    1  UNL1       -0.2276
     39 C         137.4957  142.2197  163.0540 C.ar    1  UNL1        0.1019
     40 C         137.7394  142.7806  164.4237 C.ar    1  UNL1        0.0413
     41 C         138.8465  143.7684  164.6435 C.ar    1  UNL1        0.1019
     42 N         139.7100  144.1955  163.4938 N.ar    1  UNL1       -0.2276
@<TRIPOS>BOND
     1    13    14    2
     2    14    15   am
     3     1    15    1
     4     1     2    1
     5     2     3    1
     6     3     4    1
     7     4     7    1
     8     7     8    1
     9     8     9    1
    10     9    10    1
    11    10    11    1
    12    11    12    1
    13     4     5    1
    14     5     6    1
    15     6    30    1
    16    30    31    2
    17    30    32   am
    18    32    34    1
    19    34    37    1
    20    37    38   ar
    21    38    39   ar
    22    39    40   ar
    23    40    41   ar
    24    41    42   ar
    25    34    35    1
    26    35    36    1
    27    14    17    1
    28    17    18   ar
    29    18    19   ar
    30    19    22    1
    31    22    23   ar
    32    23    24   ar
    33    24    25   ar
    34    25    26    1
    35    25    27   ar
    36    27    28   ar
    37    28    29    1
    38    19    20   ar
    39    20    21   ar
    40     6     1    1
    41    36    34    1
    42    21    17   ar
    43    12     7    1
    44    42    37   ar
    45    28    22   ar
    46    15    16    1
    47    32    33    1
@<TRIPOS>MOLECULE
*****
 42 47 0 0 0
SMALL
GASTEIGER

@<TRIPOS>ATOM
      1 C         143.4520  141.8415  161.2744 C.3     1  UNL1        0.0832
      2 C         144.7826  142.4435  160.9324 C.3     1  UNL1        0.0374
      3 C         145.1943  142.5865  159.4971 C.3     1  UNL1        0.0738
      4 N         144.2755  142.1276  158.4040 N.3     1  UNL1       -0.2734
      5 C         142.9449  141.5256  158.7460 C.3     1  UNL1        0.0828
      6 C         142.5331  141.3825  160.1812 C.3     1  UNL1        0.1103
      7 C         144.6873  142.2706  156.9687 C.3     1  UNL1        0.0575
      8 C         143.6591  142.5767  155.9203 C.3     1  UNL1        0.0160
      9 C         144.0709  142.7198  154.4850 C.3     1  UNL1        0.0014
     10 C         145.5110  142.5568  154.0981 C.3     1  UNL1        0.0001
     11 C         146.5392  142.2507  155.1466 C.3     1  UNL1        0.0014
     12 C         146.1274  142.1076  156.5818 C.3     1  UNL1        0.0160
     13 O         144.4254  139.5076  162.8887 O.2     1  UNL1       -0.2684
     14 C         143.5268  140.5315  163.5169 C.2     1  UNL1        0.2669
     15 N         143.0402  141.6984  162.7097 N.am    1  UNL1       -0.3006
     16 H         142.4505  142.3704  163.1220 H       1  UNL1        0.1497
     17 C         143.1151  140.3884  164.9521 C.ar    1  UNL1        0.1761
     18 C         142.2714  141.3560  165.7280 C.ar    1  UNL1        0.0673
     19 C         142.1095  140.8182  167.1188 C.ar    1  UNL1        0.1792
     20 O         142.8533  139.5181  167.2026 O.2     1  UNL1       -0.3532
     21 N         143.4747  139.2526  165.8634 N.ar    1  UNL1       -0.0723
     22 C         141.3393  141.4665  168.2308 C.ar    1  UNL1        0.0648
     23 C         141.7880  142.7867  168.7836 C.ar    1  UNL1        0.0077
     24 C         141.0177  143.4350  169.8955 C.ar    1  UNL1        0.0299
     25 C         139.7988  142.7631  170.4546 C.ar    1  UNL1        0.1424
     26 F         139.0285  143.4114  171.5665 F       1  UNL1       -0.2041
     27 C         139.3502  141.4429  169.9018 C.ar    1  UNL1        0.0593
     28 C         140.1204  140.7946  168.7899 C.ar    1  UNL1        0.1453
     29 F         139.6717  139.4743  168.2371 F       1  UNL1       -0.2040
     30 C         141.2025  140.7805  160.5233 C.2     1  UNL1        0.2252
     31 O         141.1366  139.4923  161.2890 O.2     1  UNL1       -0.2750
     32 N         139.9377  141.4667  160.0997 N.am    1  UNL1       -0.3010
     33 H         139.9809  142.3121  159.5972 H       1  UNL1        0.1497
     34 C         138.6071  140.8647  160.4418 C.3     1  UNL1        0.1089
     35 C         137.3805  140.0071  160.3420 C.3     1  UNL1        0.0274
     36 C         138.4446  139.9195  159.2884 C.3     1  UNL1        0.0274
     37 C         138.3074  141.6008  161.7139 C.ar    1  UNL1        0.1549
     38 N         138.3160  140.8694  163.0234 N.ar    1  UNL1       -0.2276
     39 C         138.0163  141.6055  164.2957 C.ar    1  UNL1        0.1019
     40 C         137.7082  143.0730  164.2583 C.ar    1  UNL1        0.0413
     41 C         137.6996  143.8044  162.9487 C.ar    1  UNL1        0.1019
     42 N         137.9993  143.0684  161.6765 N.ar    1  UNL1       -0.2276
@<TRIPOS>BOND
     1    13    14    2
     2    14    15   am
     3     1    15    1
     4     1     2    1
     5     2     3    1
     6     3     4    1
     7     4     7    1
     8     7     8    1
     9     8     9    1
    10     9    10    1
    11    10    11    1
    12    11    12    1
    13     4     5    1
    14     5     6    1
    15     6    30    1
    16    30    31    2
    17    30    32   am
    18    32    34    1
    19    34    37    1
    20    37    38   ar
    21    38    39   ar
    22    39    40   ar
    23    40    41   ar
    24    41    42   ar
    25    34    35    1
    26    35    36    1
    27    14    17    1
    28    17    18   ar
    29    18    19   ar
    30    19    22    1
    31    22    23   ar
    32    23    24   ar
    33    24    25   ar
    34    25    26    1
    35    25    27   ar
    36    27    28   ar
    37    28    29    1
    38    19    20   ar
    39    20    21   ar
    40     6     1    1
    41    36    34    1
    42    21    17   ar
    43    12     7    1
    44    42    37   ar
    45    28    22   ar
    46    15    16    1
    47    32    33    1
