@<TRIPOS>MOLECULE
*****
 35 40 0 0 0
SMALL
GASTEIGER

@<TRIPOS>ATOM
      1 C         139.5224  140.6345  164.9929 C.3     1  UNL1        0.1531
      2 C         140.6796  140.4075  164.0658 C.3     1  UNL1        0.1067
      3 N         140.4367  140.1985  162.6005 N.3     1  UNL1       -0.2665
      4 C         141.5938  139.9715  161.6733 C.3     1  UNL1        0.0940
      5 C         141.3510  139.7625  160.2080 C.3     1  UNL1        0.1107
      6 N         139.9510  139.7804  159.6697 N.am    1  UNL1       -0.2764
      7 C         139.7081  139.5713  158.2043 C.2     1  UNL1        0.2302
      8 O         138.3082  139.5892  157.6660 O.2     1  UNL1       -0.2745
      9 C         138.7939  140.0073  160.5968 C.3     1  UNL1        0.1119
     10 C         139.0367  140.2164  162.0622 C.3     1  UNL1        0.1075
     11 C         137.8796  140.4433  162.9893 C.3     1  UNL1        0.1601
     12 O         138.1225  140.6524  164.4546 O.3     1  UNL1       -0.3489
     13 C         140.2258  143.3630  166.0226 C.3     1  UNL1        0.0306
     14 C         140.1169  142.2078  166.9732 C.ar    1  UNL1       -0.0238
     15 C         139.7653  140.8435  166.4583 C.ar    1  UNL1        0.0018
     16 C         139.6564  139.6882  167.4089 C.ar    1  UNL1       -0.0020
     17 C         139.8992  139.8972  168.8742 C.ar    1  UNL1        0.0060
     18 C         140.2509  141.2616  169.3891 C.ar    1  UNL1        0.0748
     19 C         140.3598  142.4168  168.4386 C.ar    1  UNL1        0.0233
     20 C         140.7198  143.6376  169.2321 C.3     1  UNL1        0.2352
     21 O         140.8335  143.2370  170.6731 O.3     1  UNL1       -0.4404
     22 C         140.5437  141.7684  170.7701 C.2     1  UNL1        0.3413
     23 O         140.5463  140.9504  172.0275 O.2     1  UNL1       -0.2449
     24 C         140.8653  139.3444  157.2772 C.3     1  UNL1        0.1131
     25 C         141.2636  137.9476  156.9029 C.ar    1  UNL1        0.0062
     26 C         140.4691  137.1894  155.8810 C.ar    1  UNL1        0.0009
     27 C         140.8674  135.7926  155.5067 C.ar    1  UNL1        0.0386
     28 C         142.0602  135.1538  156.1542 C.ar    1  UNL1        0.1672
     29 N         142.8546  135.9119  157.1760 N.ar    1  UNL1       -0.2252
     30 C         142.4563  137.3088  157.5504 C.ar    1  UNL1        0.0968
     31 N         142.4585  133.7570  155.7799 N.ar    1  UNL1       -0.1708
     32 C         142.8172  133.2814  154.4032 C.ar    1  UNL1        0.2272
     33 N         143.1484  131.8208  154.4890 N.ar    1  UNL1       -0.1044
     34 N         142.9944  131.3938  155.9188 N.ar    1  UNL1       -0.0222
     35 N         142.5680  132.5904  156.7165 N.ar    1  UNL1       -0.0371
@<TRIPOS>BOND
     1    13    14    1
     2    14    15   ar
     3     1    15    1
     4     1     2    1
     5     2     3    1
     6     3     4    1
     7     4     5    1
     8     5     6    1
     9     6     7   am
    10     7     8    2
    11     7    24    1
    12    24    25    1
    13    25    26   ar
    14    26    27   ar
    15    27    28   ar
    16    28    31    1
    17    31    32   ar
    18    32    33   ar
    19    33    34   ar
    20    34    35   ar
    21    28    29   ar
    22    29    30   ar
    23     6     9    1
    24    10     9    1
    25    10    11    1
    26    11    12    1
    27    15    16   ar
    28    16    17   ar
    29    17    18   ar
    30    18    19   ar
    31    19    20    1
    32    20    21    1
    33    21    22    1
    34    22    23    2
    35    19    14   ar
    36    12     1    1
    37    22    18    1
    38    10     3    1
    39    30    25   ar
    40    35    31   ar
@<TRIPOS>MOLECULE
*****
 35 40 0 0 0
SMALL
GASTEIGER

@<TRIPOS>ATOM
      1 C         139.8643  140.3392  164.2381 C.3     1  UNL1        0.1531
      2 C         141.0720  140.0721  163.3895 C.3     1  UNL1        0.1067
      3 N         140.9055  139.5933  161.9778 N.3     1  UNL1       -0.2665
      4 C         142.1132  139.3261  161.1291 C.3     1  UNL1        0.0940
      5 C         141.9468  138.8474  159.7174 C.3     1  UNL1        0.1107
      6 N         140.5727  138.6358  159.1542 N.am    1  UNL1       -0.2764
      7 C         140.4063  138.1570  157.7424 C.2     1  UNL1        0.2302
      8 O         139.0322  137.9454  157.1793 O.2     1  UNL1       -0.2745
      9 C         139.3650  138.9029  160.0028 C.3     1  UNL1        0.1119
     10 C         139.5314  139.3817  161.4147 C.3     1  UNL1        0.1075
     11 C         138.3238  139.6489  162.2633 C.3     1  UNL1        0.1601
     12 O         138.4902  140.1276  163.6750 O.3     1  UNL1       -0.3489
     13 C         138.5118  138.8828  166.4853 C.3     1  UNL1        0.0306
     14 C         139.3545  140.0898  166.7735 C.ar    1  UNL1       -0.0238
     15 C         140.0307  140.8180  165.6500 C.ar    1  UNL1        0.0018
     16 C         140.8734  142.0250  165.9382 C.ar    1  UNL1       -0.0020
     17 C         141.0398  142.5038  167.3499 C.ar    1  UNL1        0.0060
     18 C         140.3636  141.7755  168.4735 C.ar    1  UNL1        0.0748
     19 C         139.5209  140.5685  168.1853 C.ar    1  UNL1        0.0233
     20 C         138.9806  140.0586  169.4883 C.3     1  UNL1        0.2352
     21 O         139.4893  140.9504  170.5819 O.3     1  UNL1       -0.4404
     22 C         140.3440  142.0115  169.9546 C.2     1  UNL1        0.3413
     23 O         141.0545  143.1150  170.6811 O.2     1  UNL1       -0.2449
     24 C         141.6139  137.8899  156.8938 C.3     1  UNL1        0.1131
     25 C         142.0740  136.4804  156.6666 C.ar    1  UNL1        0.0062
     26 C         141.3913  135.6247  155.6410 C.ar    1  UNL1        0.0009
     27 C         141.8514  134.2152  155.4138 C.ar    1  UNL1        0.0386
     28 C         142.9941  133.6613  156.2122 C.ar    1  UNL1        0.1672
     29 N         143.6767  134.5170  157.2378 N.ar    1  UNL1       -0.2252
     30 C         143.2167  135.9265  157.4650 C.ar    1  UNL1        0.0968
     31 N         143.4541  132.2519  155.9851 N.ar    1  UNL1       -0.1708
     32 C         142.5709  131.0470  155.8499 C.ar    1  UNL1        0.2272
     33 N         143.4491  129.8502  155.6344 N.ar    1  UNL1       -0.1044
     34 N         144.8752  130.3154  155.6365 N.ar    1  UNL1       -0.0222
     35 N         144.8783  131.7996  155.8532 N.ar    1  UNL1       -0.0371
@<TRIPOS>BOND
     1    13    14    1
     2    14    15   ar
     3     1    15    1
     4     1     2    1
     5     2     3    1
     6     3     4    1
     7     4     5    1
     8     5     6    1
     9     6     7   am
    10     7     8    2
    11     7    24    1
    12    24    25    1
    13    25    26   ar
    14    26    27   ar
    15    27    28   ar
    16    28    31    1
    17    31    32   ar
    18    32    33   ar
    19    33    34   ar
    20    34    35   ar
    21    28    29   ar
    22    29    30   ar
    23     6     9    1
    24    10     9    1
    25    10    11    1
    26    11    12    1
    27    15    16   ar
    28    16    17   ar
    29    17    18   ar
    30    18    19   ar
    31    19    20    1
    32    20    21    1
    33    21    22    1
    34    22    23    2
    35    19    14   ar
    36    12     1    1
    37    22    18    1
    38    10     3    1
    39    30    25   ar
    40    35    31   ar
@<TRIPOS>MOLECULE
*****
 35 40 0 0 0
SMALL
GASTEIGER

@<TRIPOS>ATOM
      1 C         139.9138  139.6711  163.7068 C.3     1  UNL1        0.1531
      2 C         140.9927  138.7646  163.1928 C.3     1  UNL1        0.1067
      3 N         141.2282  138.6410  161.7166 N.3     1  UNL1       -0.2665
      4 C         142.3071  137.7345  161.2026 C.3     1  UNL1        0.0940
      5 C         142.5427  137.6109  159.7264 C.3     1  UNL1        0.1107
      6 N         141.6994  138.3939  158.7642 N.am    1  UNL1       -0.2764
      7 C         141.9350  138.2703  157.2879 C.2     1  UNL1        0.2302
      8 O         141.0917  139.0532  156.3257 O.2     1  UNL1       -0.2745
      9 C         140.6205  139.3004  159.2782 C.3     1  UNL1        0.1119
     10 C         140.3849  139.4240  160.7544 C.3     1  UNL1        0.1075
     11 C         139.3061  140.3305  161.2684 C.3     1  UNL1        0.1601
     12 O         139.0705  140.4540  162.7446 O.3     1  UNL1       -0.3489
     13 C         141.5454  141.5952  165.3304 C.3     1  UNL1        0.0306
     14 C         140.4940  140.7567  165.9948 C.ar    1  UNL1       -0.0238
     15 C         139.6782  139.7947  165.1831 C.ar    1  UNL1        0.0018
     16 C         138.6268  138.9562  165.8475 C.ar    1  UNL1       -0.0020
     17 C         138.3912  139.0797  167.3237 C.ar    1  UNL1        0.0060
     18 C         139.2070  140.0418  168.1355 C.ar    1  UNL1        0.0748
     19 C         140.2584  140.8803  167.4711 C.ar    1  UNL1        0.0233
     20 C         140.9018  141.7355  168.5220 C.3     1  UNL1        0.2352
     21 O         140.2481  141.4256  169.8360 O.3     1  UNL1       -0.4404
     22 C         139.2006  140.3788  169.5971 C.2     1  UNL1        0.3413
     23 O         138.3042  139.7751  170.6373 O.2     1  UNL1       -0.2449
     24 C         143.0139  137.3637  156.7739 C.3     1  UNL1        0.1131
     25 C         142.7044  135.9284  156.4672 C.ar    1  UNL1        0.0062
     26 C         141.7792  135.5855  155.3374 C.ar    1  UNL1        0.0009
     27 C         141.4698  134.1502  155.0307 C.ar    1  UNL1        0.0386
     28 C         142.0855  133.0578  155.8538 C.ar    1  UNL1        0.1672
     29 N         143.0107  133.4007  156.9836 N.ar    1  UNL1       -0.2252
     30 C         143.3202  134.8360  157.2903 C.ar    1  UNL1        0.0968
     31 N         141.7761  131.6225  155.5472 N.ar    1  UNL1       -0.1708
     32 C         140.6487  131.1271  154.6906 C.ar    1  UNL1        0.2272
     33 N         140.7156  129.6289  154.6573 N.ar    1  UNL1       -0.1044
     34 N         141.8843  129.1983  155.4933 N.ar    1  UNL1       -0.0222
     35 N         142.5397  130.4304  156.0432 N.ar    1  UNL1       -0.0371
@<TRIPOS>BOND
     1    13    14    1
     2    14    15   ar
     3     1    15    1
     4     1     2    1
     5     2     3    1
     6     3     4    1
     7     4     5    1
     8     5     6    1
     9     6     7   am
    10     7     8    2
    11     7    24    1
    12    24    25    1
    13    25    26   ar
    14    26    27   ar
    15    27    28   ar
    16    28    31    1
    17    31    32   ar
    18    32    33   ar
    19    33    34   ar
    20    34    35   ar
    21    28    29   ar
    22    29    30   ar
    23     6     9    1
    24    10     9    1
    25    10    11    1
    26    11    12    1
    27    15    16   ar
    28    16    17   ar
    29    17    18   ar
    30    18    19   ar
    31    19    20    1
    32    20    21    1
    33    21    22    1
    34    22    23    2
    35    19    14   ar
    36    12     1    1
    37    22    18    1
    38    10     3    1
    39    30    25   ar
    40    35    31   ar
@<TRIPOS>MOLECULE
*****
 35 40 0 0 0
SMALL
GASTEIGER

@<TRIPOS>ATOM
      1 C         143.7000  140.1921  158.2704 C.3     1  UNL1        0.1531
      2 C         142.9051  141.1266  159.1334 C.3     1  UNL1        0.1067
      3 N         141.9810  140.5780  160.1797 N.3     1  UNL1       -0.2665
      4 C         141.1860  141.5125  161.0428 C.3     1  UNL1        0.0940
      5 C         140.2618  140.9639  162.0891 C.3     1  UNL1        0.1107
      6 N         140.1326  139.4808  162.2725 N.am    1  UNL1       -0.2764
      7 C         139.2084  138.9322  163.3190 C.2     1  UNL1        0.2302
      8 O         139.0792  137.4491  163.5024 O.2     1  UNL1       -0.2745
      9 C         140.9275  138.5463  161.4096 C.3     1  UNL1        0.1119
     10 C         141.8517  139.0949  160.3632 C.3     1  UNL1        0.1075
     11 C         142.6467  138.1604  159.5002 C.3     1  UNL1        0.1601
     12 O         143.5708  138.7090  158.4538 O.3     1  UNL1       -0.3489
     13 C         143.6218  139.0987  155.4778 C.3     1  UNL1        0.0306
     14 C         144.5851  140.1940  155.8277 C.ar    1  UNL1       -0.0238
     15 C         144.6242  140.7407  157.2240 C.ar    1  UNL1        0.0018
     16 C         145.5875  141.8360  157.5738 C.ar    1  UNL1       -0.0020
     17 C         146.5117  142.3846  156.5275 C.ar    1  UNL1        0.0060
     18 C         146.4726  141.8379  155.1312 C.ar    1  UNL1        0.0748
     19 C         145.5093  140.7426  154.7813 C.ar    1  UNL1        0.0233
     20 C         145.6976  140.4052  153.3320 C.3     1  UNL1        0.2352
     21 O         146.7773  141.2919  152.7861 O.3     1  UNL1       -0.4404
     22 C         147.2562  142.1774  153.8981 C.2     1  UNL1        0.3413
     23 O         148.3303  143.2194  153.7950 O.2     1  UNL1       -0.2449
     24 C         138.4135  139.8667  164.1819 C.3     1  UNL1        0.1131
     25 C         138.8855  140.1919  165.5681 C.ar    1  UNL1        0.0062
     26 C         139.6646  141.4489  165.8195 C.ar    1  UNL1        0.0009
     27 C         140.1366  141.7742  167.2056 C.ar    1  UNL1        0.0386
     28 C         139.8295  140.8425  168.3404 C.ar    1  UNL1        0.1672
     29 N         139.0505  139.5856  168.0890 N.ar    1  UNL1       -0.2252
     30 C         138.5784  139.2603  166.7029 C.ar    1  UNL1        0.0968
     31 N         140.3015  141.1678  169.7265 N.ar    1  UNL1       -0.1708
     32 C         141.4995  140.5790  170.4108 C.ar    1  UNL1        0.2272
     33 N         141.5968  141.1863  171.7790 N.ar    1  UNL1       -0.1044
     34 N         140.4589  142.1503  171.9403 N.ar    1  UNL1       -0.0222
     35 N         139.6584  142.1389  170.6718 N.ar    1  UNL1       -0.0371
@<TRIPOS>BOND
     1    13    14    1
     2    14    15   ar
     3     1    15    1
     4     1     2    1
     5     2     3    1
     6     3     4    1
     7     4     5    1
     8     5     6    1
     9     6     7   am
    10     7     8    2
    11     7    24    1
    12    24    25    1
    13    25    26   ar
    14    26    27   ar
    15    27    28   ar
    16    28    31    1
    17    31    32   ar
    18    32    33   ar
    19    33    34   ar
    20    34    35   ar
    21    28    29   ar
    22    29    30   ar
    23     6     9    1
    24    10     9    1
    25    10    11    1
    26    11    12    1
    27    15    16   ar
    28    16    17   ar
    29    17    18   ar
    30    18    19   ar
    31    19    20    1
    32    20    21    1
    33    21    22    1
    34    22    23    2
    35    19    14   ar
    36    12     1    1
    37    22    18    1
    38    10     3    1
    39    30    25   ar
    40    35    31   ar
@<TRIPOS>MOLECULE
*****
 35 40 0 0 0
SMALL
GASTEIGER

@<TRIPOS>ATOM
      1 C         140.2457  140.8852  163.9866 C.3     1  UNL1        0.1531
      2 C         139.1880  141.4682  163.0970 C.3     1  UNL1        0.1067
      3 N         139.4455  141.6223  161.6274 N.3     1  UNL1       -0.2665
      4 C         138.3878  142.2054  160.7377 C.3     1  UNL1        0.0940
      5 C         138.6453  142.3594  159.2680 C.3     1  UNL1        0.1107
      6 N         139.9604  141.9304  158.6880 N.am    1  UNL1       -0.2764
      7 C         140.2178  142.0844  157.2182 C.2     1  UNL1        0.2302
      8 O         141.5329  141.6554  156.6382 O.2     1  UNL1       -0.2745
      9 C         141.0180  141.3473  159.5776 C.3     1  UNL1        0.1119
     10 C         140.7606  141.1932  161.0473 C.3     1  UNL1        0.1075
     11 C         141.8182  140.6102  161.9369 C.3     1  UNL1        0.1601
     12 O         141.5607  140.4561  163.4066 O.3     1  UNL1       -0.3489
     13 C         141.2652  142.9473  165.9123 C.3     1  UNL1        0.0306
     14 C         140.4980  141.7622  166.4192 C.ar    1  UNL1       -0.0238
     15 C         139.9882  140.7311  165.4564 C.ar    1  UNL1        0.0018
     16 C         139.2210  139.5460  165.9632 C.ar    1  UNL1       -0.0020
     17 C         138.9636  139.3919  167.4329 C.ar    1  UNL1        0.0060
     18 C         139.4734  140.4230  168.3958 C.ar    1  UNL1        0.0748
     19 C         140.2406  141.6081  167.8889 C.ar    1  UNL1        0.0233
     20 C         140.6162  142.4558  169.0679 C.3     1  UNL1        0.2352
     21 O         140.0811  141.7947  170.3035 O.3     1  UNL1       -0.4404
     22 C         139.3748  140.5383  169.8880 C.2     1  UNL1        0.3413
     23 O         138.6902  139.5676  170.8041 O.2     1  UNL1       -0.2449
     24 C         139.1602  142.6675  156.3286 C.3     1  UNL1        0.1131
     25 C         139.1191  144.1465  156.0824 C.ar    1  UNL1        0.0062
     26 C         138.0383  144.7343  155.2242 C.ar    1  UNL1        0.0009
     27 C         137.9972  146.2133  154.9779 C.ar    1  UNL1        0.0386
     28 C         139.0369  147.1047  155.5898 C.ar    1  UNL1        0.1672
     29 N         140.1177  146.5170  156.4480 N.ar    1  UNL1       -0.2252
     30 C         140.1588  145.0379  156.6943 C.ar    1  UNL1        0.0968
     31 N         138.9958  148.5837  155.3436 N.ar    1  UNL1       -0.1708
     32 C         138.3564  149.6083  156.2333 C.ar    1  UNL1        0.2272
     33 N         138.5524  150.9558  155.6039 N.ar    1  UNL1       -0.1044
     34 N         139.3129  150.7640  154.3252 N.ar    1  UNL1       -0.0222
     35 N         139.5869  149.2980  154.1644 N.ar    1  UNL1       -0.0371
@<TRIPOS>BOND
     1    13    14    1
     2    14    15   ar
     3     1    15    1
     4     1     2    1
     5     2     3    1
     6     3     4    1
     7     4     5    1
     8     5     6    1
     9     6     7   am
    10     7     8    2
    11     7    24    1
    12    24    25    1
    13    25    26   ar
    14    26    27   ar
    15    27    28   ar
    16    28    31    1
    17    31    32   ar
    18    32    33   ar
    19    33    34   ar
    20    34    35   ar
    21    28    29   ar
    22    29    30   ar
    23     6     9    1
    24    10     9    1
    25    10    11    1
    26    11    12    1
    27    15    16   ar
    28    16    17   ar
    29    17    18   ar
    30    18    19   ar
    31    19    20    1
    32    20    21    1
    33    21    22    1
    34    22    23    2
    35    19    14   ar
    36    12     1    1
    37    22    18    1
    38    10     3    1
    39    30    25   ar
    40    35    31   ar
@<TRIPOS>MOLECULE
*****
 35 40 0 0 0
SMALL
GASTEIGER

@<TRIPOS>ATOM
      1 C         139.6902  140.5306  165.0141 C.3     1  UNL1        0.1531
      2 C         140.7477  139.8054  164.2359 C.3     1  UNL1        0.1067
      3 N         140.5527  139.5403  162.7725 N.3     1  UNL1       -0.2665
      4 C         141.6103  138.8151  161.9942 C.3     1  UNL1        0.0940
      5 C         141.4153  138.5500  160.5307 C.3     1  UNL1        0.1107
      6 N         140.1628  139.0100  159.8455 N.am    1  UNL1       -0.2764
      7 C         139.9679  138.7449  158.3820 C.2     1  UNL1        0.2302
      8 O         138.7153  139.2050  157.6968 O.2     1  UNL1       -0.2745
      9 C         139.1053  139.7352  160.6237 C.3     1  UNL1        0.1119
     10 C         139.3002  140.0004  162.0872 C.3     1  UNL1        0.1075
     11 C         138.2427  140.7255  162.8655 C.3     1  UNL1        0.1601
     12 O         138.4377  140.9906  164.3289 O.3     1  UNL1       -0.3489
     13 C         140.1680  143.3301  165.9808 C.3     1  UNL1        0.0306
     14 C         140.1240  142.1954  166.9609 C.ar    1  UNL1       -0.0238
     15 C         139.8851  140.7957  166.4776 C.ar    1  UNL1        0.0018
     16 C         139.8412  139.6611  167.4577 C.ar    1  UNL1       -0.0020
     17 C         140.0361  139.9261  168.9212 C.ar    1  UNL1        0.0060
     18 C         140.2750  141.3259  169.4045 C.ar    1  UNL1        0.0748
     19 C         140.3190  142.4606  168.4244 C.ar    1  UNL1        0.0233
     20 C         140.5708  143.7253  169.1905 C.3     1  UNL1        0.2352
     21 O         140.6824  143.3723  170.6441 O.3     1  UNL1       -0.4404
     22 C         140.4996  141.8894  170.7763 C.2     1  UNL1        0.3413
     23 O         140.5352  141.1074  172.0559 O.2     1  UNL1       -0.2449
     24 C         141.0254  138.0197  157.6038 C.3     1  UNL1        0.1131
     25 C         142.2127  138.7681  157.0743 C.ar    1  UNL1        0.0062
     26 C         142.2969  140.2563  157.2419 C.ar    1  UNL1        0.0009
     27 C         143.4841  141.0047  156.7125 C.ar    1  UNL1        0.0386
     28 C         144.5872  140.2649  156.0154 C.ar    1  UNL1        0.1672
     29 N         144.5030  138.7767  155.8478 N.ar    1  UNL1       -0.2252
     30 C         143.3157  138.0282  156.3773 C.ar    1  UNL1        0.0968
     31 N         145.7744  141.0132  155.4859 N.ar    1  UNL1       -0.1708
     32 C         146.6599  141.9328  156.2735 C.ar    1  UNL1        0.2272
     33 N         147.7175  142.4613  155.3502 N.ar    1  UNL1       -0.1044
     34 N         147.4855  141.8683  153.9920 N.ar    1  UNL1       -0.0222
     35 N         146.2847  140.9734  154.0759 N.ar    1  UNL1       -0.0371
@<TRIPOS>BOND
     1    13    14    1
     2    14    15   ar
     3     1    15    1
     4     1     2    1
     5     2     3    1
     6     3     4    1
     7     4     5    1
     8     5     6    1
     9     6     7   am
    10     7     8    2
    11     7    24    1
    12    24    25    1
    13    25    26   ar
    14    26    27   ar
    15    27    28   ar
    16    28    31    1
    17    31    32   ar
    18    32    33   ar
    19    33    34   ar
    20    34    35   ar
    21    28    29   ar
    22    29    30   ar
    23     6     9    1
    24    10     9    1
    25    10    11    1
    26    11    12    1
    27    15    16   ar
    28    16    17   ar
    29    17    18   ar
    30    18    19   ar
    31    19    20    1
    32    20    21    1
    33    21    22    1
    34    22    23    2
    35    19    14   ar
    36    12     1    1
    37    22    18    1
    38    10     3    1
    39    30    25   ar
    40    35    31   ar
@<TRIPOS>MOLECULE
*****
 35 40 0 0 0
SMALL
GASTEIGER

@<TRIPOS>ATOM
      1 C         139.8540  141.7008  165.0082 C.3     1  UNL1        0.1531
      2 C         140.7300  142.2555  163.9243 C.3     1  UNL1        0.1067
      3 N         140.2598  142.2428  162.5000 N.3     1  UNL1       -0.2665
      4 C         141.1358  142.7975  161.4160 C.3     1  UNL1        0.0940
      5 C         140.6656  142.7847  159.9917 C.3     1  UNL1        0.1107
      6 N         139.3195  142.2172  159.6513 N.am    1  UNL1       -0.2764
      7 C         138.8493  142.2045  158.2269 C.2     1  UNL1        0.2302
      8 O         137.5032  141.6370  157.8865 O.2     1  UNL1       -0.2745
      9 C         138.4435  141.6625  160.7352 C.3     1  UNL1        0.1119
     10 C         138.9136  141.6753  162.1596 C.3     1  UNL1        0.1075
     11 C         138.0377  141.1206  163.2435 C.3     1  UNL1        0.1601
     12 O         138.5078  141.1334  164.6678 O.3     1  UNL1       -0.3489
     13 C         141.2426  139.2996  166.1511 C.3     1  UNL1        0.0306
     14 C         141.0184  140.5130  167.0041 C.ar    1  UNL1       -0.0238
     15 C         140.3241  141.7136  166.4327 C.ar    1  UNL1        0.0018
     16 C         140.1000  142.9269  167.2856 C.ar    1  UNL1       -0.0020
     17 C         140.5701  142.9397  168.7099 C.ar    1  UNL1        0.0060
     18 C         141.2644  141.7391  169.2814 C.ar    1  UNL1        0.0748
     19 C         141.4886  140.5258  168.4285 C.ar    1  UNL1        0.0233
     20 C         142.1972  139.4986  169.2607 C.3     1  UNL1        0.2352
     21 O         142.4110  140.0772  170.6281 O.3     1  UNL1       -0.4404
     22 C         141.8345  141.4619  170.6408 C.2     1  UNL1        0.3413
     23 O         141.8290  142.4039  171.8081 O.2     1  UNL1       -0.2449
     24 C         139.7253  142.7592  157.1429 C.3     1  UNL1        0.1131
     25 C         139.5652  144.1849  156.7054 C.ar    1  UNL1        0.0062
     26 C         140.5208  145.2319  157.1961 C.ar    1  UNL1        0.0009
     27 C         140.3606  146.6577  156.7586 C.ar    1  UNL1        0.0386
     28 C         139.2450  147.0366  155.8303 C.ar    1  UNL1        0.1672
     29 N         138.2894  145.9897  155.3395 N.ar    1  UNL1       -0.2252
     30 C         138.4495  144.5638  155.7771 C.ar    1  UNL1        0.0968
     31 N         139.0849  148.4623  155.3927 N.ar    1  UNL1       -0.1708
     32 C         139.7002  149.0852  154.1747 C.ar    1  UNL1        0.2272
     33 N         139.2769  150.5235  154.1256 N.ar    1  UNL1       -0.1044
     34 N         138.4000  150.7895  155.3132 N.ar    1  UNL1       -0.0222
     35 N         138.2813  149.5156  156.0963 N.ar    1  UNL1       -0.0371
@<TRIPOS>BOND
     1    13    14    1
     2    14    15   ar
     3     1    15    1
     4     1     2    1
     5     2     3    1
     6     3     4    1
     7     4     5    1
     8     5     6    1
     9     6     7   am
    10     7     8    2
    11     7    24    1
    12    24    25    1
    13    25    26   ar
    14    26    27   ar
    15    27    28   ar
    16    28    31    1
    17    31    32   ar
    18    32    33   ar
    19    33    34   ar
    20    34    35   ar
    21    28    29   ar
    22    29    30   ar
    23     6     9    1
    24    10     9    1
    25    10    11    1
    26    11    12    1
    27    15    16   ar
    28    16    17   ar
    29    17    18   ar
    30    18    19   ar
    31    19    20    1
    32    20    21    1
    33    21    22    1
    34    22    23    2
    35    19    14   ar
    36    12     1    1
    37    22    18    1
    38    10     3    1
    39    30    25   ar
    40    35    31   ar
@<TRIPOS>MOLECULE
*****
 35 40 0 0 0
SMALL
GASTEIGER

@<TRIPOS>ATOM
      1 C         141.1154  139.3113  164.0007 C.3     1  UNL1        0.1531
      2 C         141.2945  140.4989  163.1021 C.3     1  UNL1        0.1067
      3 N         141.8127  140.3123  161.7069 N.3     1  UNL1       -0.2665
      4 C         141.9918  141.4999  160.8082 C.3     1  UNL1        0.0940
      5 C         142.5100  141.3133  159.4130 C.3     1  UNL1        0.1107
      6 N         142.8492  139.9391  158.9165 N.am    1  UNL1       -0.2764
      7 C         143.3674  139.7525  157.5212 C.2     1  UNL1        0.2302
      8 O         143.7066  138.3783  157.0247 O.2     1  UNL1       -0.2745
      9 C         142.6701  138.7515  159.8151 C.3     1  UNL1        0.1119
     10 C         142.1518  138.9381  161.2104 C.3     1  UNL1        0.1075
     11 C         141.9727  137.7505  162.1090 C.3     1  UNL1        0.1601
     12 O         141.4545  137.9371  163.5041 O.3     1  UNL1       -0.3489
     13 C         142.9971  140.0687  166.2111 C.3     1  UNL1        0.0306
     14 C         141.5380  139.8766  166.5011 C.ar    1  UNL1       -0.0238
     15 C         140.5971  139.4979  165.3960 C.ar    1  UNL1        0.0018
     16 C         139.1380  139.3058  165.6860 C.ar    1  UNL1       -0.0020
     17 C         138.6198  139.4924  167.0812 C.ar    1  UNL1        0.0060
     18 C         139.5606  139.8711  168.1864 C.ar    1  UNL1        0.0748
     19 C         141.0197  140.0632  167.8964 C.ar    1  UNL1        0.0233
     20 C         141.7026  140.4329  169.1796 C.3     1  UNL1        0.2352
     21 O         140.6656  140.4693  170.2628 O.3     1  UNL1       -0.4404
     22 C         139.3418  140.1221  169.6489 C.2     1  UNL1        0.3413
     23 O         138.0295  140.0403  170.3709 O.2     1  UNL1       -0.2449
     24 C         143.5465  140.9400  156.6226 C.3     1  UNL1        0.1131
     25 C         144.9073  141.2797  156.0908 C.ar    1  UNL1        0.0062
     26 C         145.2835  140.8932  154.6911 C.ar    1  UNL1        0.0009
     27 C         146.6443  141.2328  154.1593 C.ar    1  UNL1        0.0386
     28 C         147.6290  141.9589  155.0272 C.ar    1  UNL1        0.1672
     29 N         147.2528  142.3454  156.4269 N.ar    1  UNL1       -0.2252
     30 C         145.8920  142.0058  156.9587 C.ar    1  UNL1        0.0968
     31 N         148.9898  142.2986  154.4955 N.ar    1  UNL1       -0.1708
     32 C         150.2918  141.7311  154.9779 C.ar    1  UNL1        0.2272
     33 N         151.3943  142.3472  154.1684 N.ar    1  UNL1       -0.1044
     34 N         150.7736  143.2954  153.1857 N.ar    1  UNL1       -0.0222
     35 N         149.2876  143.2653  153.3878 N.ar    1  UNL1       -0.0371
@<TRIPOS>BOND
     1    13    14    1
     2    14    15   ar
     3     1    15    1
     4     1     2    1
     5     2     3    1
     6     3     4    1
     7     4     5    1
     8     5     6    1
     9     6     7   am
    10     7     8    2
    11     7    24    1
    12    24    25    1
    13    25    26   ar
    14    26    27   ar
    15    27    28   ar
    16    28    31    1
    17    31    32   ar
    18    32    33   ar
    19    33    34   ar
    20    34    35   ar
    21    28    29   ar
    22    29    30   ar
    23     6     9    1
    24    10     9    1
    25    10    11    1
    26    11    12    1
    27    15    16   ar
    28    16    17   ar
    29    17    18   ar
    30    18    19   ar
    31    19    20    1
    32    20    21    1
    33    21    22    1
    34    22    23    2
    35    19    14   ar
    36    12     1    1
    37    22    18    1
    38    10     3    1
    39    30    25   ar
    40    35    31   ar
@<TRIPOS>MOLECULE
*****
 35 40 0 0 0
SMALL
GASTEIGER

@<TRIPOS>ATOM
      1 C         140.5078  142.8112  158.3753 C.3     1  UNL1        0.1531
      2 C         139.5314  142.7100  159.5095 C.3     1  UNL1        0.1067
      3 N         139.5915  141.5421  160.4489 N.3     1  UNL1       -0.2665
      4 C         138.6151  141.4409  161.5831 C.3     1  UNL1        0.0940
      5 C         138.6753  140.2730  162.5225 C.3     1  UNL1        0.1107
      6 N         139.7118  139.2064  162.3276 N.am    1  UNL1       -0.2764
      7 C         139.7719  138.0385  163.2671 C.2     1  UNL1        0.2302
      8 O         140.8084  136.9719  163.0723 O.2     1  UNL1       -0.2745
      9 C         140.6882  139.3076  161.1935 C.3     1  UNL1        0.1119
     10 C         140.6281  140.4755  160.2540 C.3     1  UNL1        0.1075
     11 C         141.6045  140.5768  159.1199 C.3     1  UNL1        0.1601
     12 O         141.5443  141.7446  158.1805 O.3     1  UNL1       -0.3489
     13 C         140.9287  142.3940  155.4344 C.3     1  UNL1        0.0306
     14 C         140.6581  143.7705  155.9655 C.ar    1  UNL1       -0.0238
     15 C         140.4477  143.9791  157.4359 C.ar    1  UNL1        0.0018
     16 C         140.1771  145.3557  157.9669 C.ar    1  UNL1       -0.0020
     17 C         140.1170  146.5235  157.0276 C.ar    1  UNL1        0.0060
     18 C         140.3274  146.3149  155.5571 C.ar    1  UNL1        0.0748
     19 C         140.5980  144.9384  155.0260 C.ar    1  UNL1        0.0233
     20 C         140.7642  145.0398  153.5388 C.3     1  UNL1        0.2352
     21 O         140.5963  146.4789  153.1506 O.3     1  UNL1       -0.4404
     22 C         140.3264  147.2670  154.3981 C.2     1  UNL1        0.3413
     23 O         140.0959  148.7473  154.4731 O.2     1  UNL1       -0.2449
     24 C         138.7955  137.9372  164.4013 C.3     1  UNL1        0.1131
     25 C         139.0822  138.6279  165.7015 C.ar    1  UNL1        0.0062
     26 C         140.3806  139.3538  165.8949 C.ar    1  UNL1        0.0009
     27 C         140.6672  140.0445  167.1952 C.ar    1  UNL1        0.0386
     28 C         139.6556  140.0092  168.3022 C.ar    1  UNL1        0.1672
     29 N         138.3573  139.2833  168.1088 N.ar    1  UNL1       -0.2252
     30 C         138.0706  138.5926  166.8085 C.ar    1  UNL1        0.0968
     31 N         139.9423  140.6998  169.6024 N.ar    1  UNL1       -0.1708
     32 C         139.9523  142.1825  169.8298 C.ar    1  UNL1        0.2272
     33 N         140.2855  142.4281  171.2717 N.ar    1  UNL1       -0.1044
     34 N         140.4814  141.0972  171.9353 N.ar    1  UNL1       -0.0222
     35 N         140.2693  140.0291  170.9037 N.ar    1  UNL1       -0.0371
@<TRIPOS>BOND
     1    13    14    1
     2    14    15   ar
     3     1    15    1
     4     1     2    1
     5     2     3    1
     6     3     4    1
     7     4     5    1
     8     5     6    1
     9     6     7   am
    10     7     8    2
    11     7    24    1
    12    24    25    1
    13    25    26   ar
    14    26    27   ar
    15    27    28   ar
    16    28    31    1
    17    31    32   ar
    18    32    33   ar
    19    33    34   ar
    20    34    35   ar
    21    28    29   ar
    22    29    30   ar
    23     6     9    1
    24    10     9    1
    25    10    11    1
    26    11    12    1
    27    15    16   ar
    28    16    17   ar
    29    17    18   ar
    30    18    19   ar
    31    19    20    1
    32    20    21    1
    33    21    22    1
    34    22    23    2
    35    19    14   ar
    36    12     1    1
    37    22    18    1
    38    10     3    1
    39    30    25   ar
    40    35    31   ar
