@<TRIPOS>MOLECULE
*****
 34 37 0 0 0
SMALL
GASTEIGER

@<TRIPOS>ATOM
      1 C         138.6055  139.2403  165.2185 C.ar    1  UNL1        0.0503
      2 C         138.1260  140.3670  164.3520 C.ar    1  UNL1        0.0143
      3 C         138.0356  140.1841  162.8660 C.ar    1  UNL1       -0.0029
      4 C         138.4248  138.8746  162.2464 C.ar    1  UNL1       -0.0208
      5 C         138.9043  137.7480  163.1129 C.ar    1  UNL1       -0.0029
      6 C         138.9946  137.9309  164.5989 C.ar    1  UNL1        0.0143
      7 O         141.0988  140.3753  166.4413 O.2     1  UNL1       -0.2727
      8 C         139.9425  139.9906  167.3160 C.2     1  UNL1        0.2493
      9 N         138.6959  139.4231  166.7046 N.am    1  UNL1       -0.2823
     10 H         137.9370  139.1707  167.2787 H       1  UNL1        0.1549
     11 C         140.0329  140.1735  168.8021 C.3     1  UNL1        0.1957
     12 N         141.0057  141.1590  169.3787 N.ar    1  UNL1       -0.2690
     13 C         140.5356  142.5214  169.7944 C.ar    1  UNL1        0.1812
     14 N         141.5085  143.5068  170.3710 N.ar    1  UNL1       -0.2236
     15 C         142.9514  143.1298  170.5318 C.ar    1  UNL1        0.1055
     16 C         143.4215  141.7674  170.1160 C.ar    1  UNL1        0.0815
     17 C         142.4487  140.7820  169.5395 C.ar    1  UNL1        0.2641
     18 O         142.9187  139.4196  169.1236 O.2     1  UNL1       -0.2669
     19 C         138.3344  138.6917  160.7603 C.3     1  UNL1        0.0420
     20 C         139.5608  138.8438  159.9100 C.3     1  UNL1        0.0585
     21 C         139.6757  138.4887  158.4572 C.3     1  UNL1        0.0175
     22 C         141.0735  138.8031  158.0124 C.3     1  UNL1        0.0199
     23 C         141.8222  139.3524  159.1905 C.3     1  UNL1        0.0855
     24 N         140.8873  139.3775  160.3632 N.3     1  UNL1       -0.2971
     25 H         140.7789  140.3345  160.6991 H       1  UNL1        0.1233
     26 C         143.2543  139.7982  159.1950 C.3     1  UNL1        0.1470
     27 O         144.1342  139.5070  158.0156 O.3     1  UNL1       -0.3787
     28 H         145.0224  139.8606  158.1798 H       1  UNL1        0.2108
     29 C         143.8068  140.5353  160.3789 C.ar    1  UNL1        0.0055
     30 C         144.1840  139.7837  161.6210 C.ar    1  UNL1       -0.0019
     31 C         144.7364  140.5207  162.8049 C.ar    1  UNL1       -0.0002
     32 C         144.9116  142.0093  162.7467 C.ar    1  UNL1       -0.0000
     33 C         144.5344  142.7608  161.5047 C.ar    1  UNL1       -0.0002
     34 C         143.9819  142.0238  160.3208 C.ar    1  UNL1       -0.0019
@<TRIPOS>BOND
     1     7     8    2
     2     8    11    1
     3    11    12    1
     4    12    13   ar
     5    13    14   ar
     6    14    15   ar
     7    15    16   ar
     8    16    17   ar
     9    17    18    2
    10     8     9   am
    11     9     1    1
    12     1     2   ar
    13     2     3   ar
    14     3     4   ar
    15     4    19    1
    16    20    19    1
    17    20    21    1
    18    21    22    1
    19    23    22    1
    20    23    26    1
    21    26    27    1
    22    26    29    1
    23    29    30   ar
    24    30    31   ar
    25    31    32   ar
    26    32    33   ar
    27    33    34   ar
    28    23    24    1
    29     4     5   ar
    30     5     6   ar
    31    17    12   ar
    32     6     1   ar
    33    24    20    1
    34    34    29   ar
    35     9    10    1
    36    27    28    1
    37    24    25    1
@<TRIPOS>MOLECULE
*****
 34 37 0 0 0
SMALL
GASTEIGER

@<TRIPOS>ATOM
      1 C         138.5854  138.7232  161.9270 C.ar    1  UNL1        0.0503
      2 C         139.1717  137.6656  162.8146 C.ar    1  UNL1        0.0143
      3 C         139.1687  137.8496  164.3033 C.ar    1  UNL1       -0.0029
      4 C         138.5794  139.0912  164.9043 C.ar    1  UNL1       -0.0208
      5 C         137.9932  140.1488  164.0167 C.ar    1  UNL1       -0.0029
      6 C         137.9962  139.9647  162.5280 C.ar    1  UNL1        0.0143
      7 O         140.7201  140.0137  160.2603 O.2     1  UNL1       -0.2727
      8 C         139.6558  139.1844  159.6050 C.2     1  UNL1        0.2493
      9 N         138.5884  138.5391  160.4383 N.am    1  UNL1       -0.2823
     10 H         137.8899  137.9948  160.0082 H       1  UNL1        0.1549
     11 C         139.6588  139.0003  158.1163 C.3     1  UNL1        0.1957
     12 N         140.6513  138.0750  157.4770 N.ar    1  UNL1       -0.2690
     13 C         142.0972  138.1379  157.8711 C.ar    1  UNL1        0.1812
     14 N         143.0897  137.2126  157.2318 N.ar    1  UNL1       -0.2236
     15 C         142.6363  136.2244  156.1984 C.ar    1  UNL1        0.1055
     16 C         141.1904  136.1615  155.8044 C.ar    1  UNL1        0.0815
     17 C         140.1979  137.0868  156.4437 C.ar    1  UNL1        0.2641
     18 O         138.7519  137.0239  156.0496 O.2     1  UNL1       -0.2669
     19 C         138.5764  139.2753  166.3930 C.3     1  UNL1        0.0420
     20 C         139.6789  140.0470  167.0555 C.3     1  UNL1        0.0585
     21 C         139.7920  140.3397  168.5223 C.3     1  UNL1        0.0175
     22 C         141.0449  141.1352  168.7409 C.3     1  UNL1        0.0199
     23 C         141.7060  141.3340  167.4092 C.3     1  UNL1        0.0855
     24 N         140.8618  140.6615  166.3676 N.3     1  UNL1       -0.2971
     25 H         141.4040  139.9365  165.8977 H       1  UNL1        0.1233
     26 C         142.9865  142.0751  167.1624 C.3     1  UNL1        0.1470
     27 O         143.7116  142.7210  168.3057 O.3     1  UNL1       -0.3787
     28 H         144.5141  143.1546  167.9760 H       1  UNL1        0.2108
     29 C         143.5421  142.1706  165.7724 C.ar    1  UNL1        0.0055
     30 C         143.5602  143.4910  165.0610 C.ar    1  UNL1       -0.0019
     31 C         144.1157  143.5865  163.6710 C.ar    1  UNL1       -0.0002
     32 C         144.6531  142.3616  162.9923 C.ar    1  UNL1       -0.0000
     33 C         144.6350  141.0412  163.7036 C.ar    1  UNL1       -0.0002
     34 C         144.0794  140.9457  165.0937 C.ar    1  UNL1       -0.0019
@<TRIPOS>BOND
     1     7     8    2
     2     8    11    1
     3    11    12    1
     4    12    13   ar
     5    13    14   ar
     6    14    15   ar
     7    15    16   ar
     8    16    17   ar
     9    17    18    2
    10     8     9   am
    11     9     1    1
    12     1     2   ar
    13     2     3   ar
    14     3     4   ar
    15     4    19    1
    16    20    19    1
    17    20    21    1
    18    21    22    1
    19    23    22    1
    20    23    26    1
    21    26    27    1
    22    26    29    1
    23    29    30   ar
    24    30    31   ar
    25    31    32   ar
    26    32    33   ar
    27    33    34   ar
    28    23    24    1
    29     4     5   ar
    30     5     6   ar
    31    17    12   ar
    32     6     1   ar
    33    24    20    1
    34    34    29   ar
    35     9    10    1
    36    27    28    1
    37    24    25    1
@<TRIPOS>MOLECULE
*****
 34 37 0 0 0
SMALL
GASTEIGER

@<TRIPOS>ATOM
      1 C         138.6110  139.1322  165.2514 C.ar    1  UNL1        0.0503
      2 C         138.9530  137.8217  164.6065 C.ar    1  UNL1        0.0143
      3 C         138.8216  137.6599  163.1210 C.ar    1  UNL1       -0.0029
      4 C         138.3480  138.8085  162.2805 C.ar    1  UNL1       -0.0208
      5 C         138.0060  140.1189  162.9254 C.ar    1  UNL1       -0.0029
      6 C         138.1374  140.2807  164.4108 C.ar    1  UNL1        0.0143
      7 O         140.9963  140.5421  166.4013 O.2     1  UNL1       -0.2727
      8 C         139.9351  139.9989  167.3118 C.2     1  UNL1        0.2493
      9 N         138.7425  139.2940  166.7368 N.am    1  UNL1       -0.2823
     10 H         138.0460  138.9376  167.3343 H       1  UNL1        0.1549
     11 C         140.0666  140.1608  168.7972 C.3     1  UNL1        0.1957
     12 N         141.0478  141.1457  169.3604 N.ar    1  UNL1       -0.2690
     13 C         140.5756  142.4896  169.8303 C.ar    1  UNL1        0.1812
     14 N         141.5568  143.4745  170.3935 N.ar    1  UNL1       -0.2236
     15 C         143.0102  143.1155  170.4867 C.ar    1  UNL1        0.1055
     16 C         143.4824  141.7716  170.0168 C.ar    1  UNL1        0.0815
     17 C         142.5012  140.7867  169.4537 C.ar    1  UNL1        0.2641
     18 O         142.9734  139.4427  168.9838 O.2     1  UNL1       -0.2669
     19 C         138.2165  138.6467  160.7950 C.3     1  UNL1        0.0420
     20 C         139.4447  138.5744  159.9369 C.3     1  UNL1        0.0585
     21 C         140.8561  138.7875  160.3979 C.3     1  UNL1        0.0175
     22 C         141.7609  138.6211  159.2130 C.3     1  UNL1        0.0199
     23 C         140.9085  138.3052  158.0197 C.3     1  UNL1        0.0855
     24 N         139.4771  138.2764  158.4671 N.3     1  UNL1       -0.2971
     25 H         139.0782  137.3540  158.2921 H       1  UNL1        0.1233
     26 C         141.4011  138.0611  156.6242 C.3     1  UNL1        0.1470
     27 O         141.4354  139.1867  155.6333 O.3     1  UNL1       -0.3787
     28 H         141.7775  138.8612  154.7860 H       1  UNL1        0.2108
     29 C         141.8593  136.6913  156.2194 C.ar    1  UNL1        0.0055
     30 C         140.9631  135.8132  155.3974 C.ar    1  UNL1       -0.0019
     31 C         141.4213  134.4435  154.9926 C.ar    1  UNL1       -0.0002
     32 C         142.7757  133.9519  155.4096 C.ar    1  UNL1       -0.0000
     33 C         143.6719  134.8301  156.2315 C.ar    1  UNL1       -0.0002
     34 C         143.2137  136.1998  156.6364 C.ar    1  UNL1       -0.0019
@<TRIPOS>BOND
     1     7     8    2
     2     8    11    1
     3    11    12    1
     4    12    13   ar
     5    13    14   ar
     6    14    15   ar
     7    15    16   ar
     8    16    17   ar
     9    17    18    2
    10     8     9   am
    11     9     1    1
    12     1     2   ar
    13     2     3   ar
    14     3     4   ar
    15     4    19    1
    16    20    19    1
    17    20    21    1
    18    21    22    1
    19    23    22    1
    20    23    26    1
    21    26    27    1
    22    26    29    1
    23    29    30   ar
    24    30    31   ar
    25    31    32   ar
    26    32    33   ar
    27    33    34   ar
    28    23    24    1
    29     4     5   ar
    30     5     6   ar
    31    17    12   ar
    32     6     1   ar
    33    24    20    1
    34    34    29   ar
    35     9    10    1
    36    27    28    1
    37    24    25    1
@<TRIPOS>MOLECULE
*****
 34 37 0 0 0
SMALL
GASTEIGER

@<TRIPOS>ATOM
      1 C         144.5207  142.7102  162.5336 C.ar    1  UNL1        0.0503
      2 C         143.9741  143.8948  163.2740 C.ar    1  UNL1        0.0143
      3 C         143.5863  143.7636  164.7171 C.ar    1  UNL1       -0.0029
      4 C         143.7450  142.4478  165.4197 C.ar    1  UNL1       -0.0208
      5 C         144.2915  141.2633  164.6793 C.ar    1  UNL1       -0.0029
      6 C         144.6793  141.3945  163.2363 C.ar    1  UNL1        0.0143
      7 O         142.4304  142.4920  160.3928 O.2     1  UNL1       -0.2727
      8 C         143.8634  142.7323  160.0202 C.2     1  UNL1        0.2493
      9 N         144.9085  142.8414  161.0906 N.am    1  UNL1       -0.2823
     10 H         145.8490  142.9991  160.8460 H       1  UNL1        0.1549
     11 C         144.2513  142.8635  158.5771 C.3     1  UNL1        0.1957
     12 N         144.2142  141.6630  157.6784 N.ar    1  UNL1       -0.2690
     13 C         142.9977  140.7860  157.6483 C.ar    1  UNL1        0.1812
     14 N         142.9606  139.5857  156.7496 N.ar    1  UNL1       -0.2236
     15 C         144.1400  139.2623  155.8811 C.ar    1  UNL1        0.1055
     16 C         145.3565  140.1393  155.9112 C.ar    1  UNL1        0.0815
     17 C         145.3936  141.3396  156.8099 C.ar    1  UNL1        0.2641
     18 O         146.6102  142.2167  156.8401 O.2     1  UNL1       -0.2669
     19 C         143.3571  142.3166  166.8627 C.3     1  UNL1        0.0420
     20 C         142.0343  141.7131  167.2320 C.3     1  UNL1        0.0585
     21 C         141.2769  141.9597  168.5030 C.3     1  UNL1        0.0175
     22 C         140.0112  141.1561  168.4516 C.3     1  UNL1        0.0199
     23 C         139.9866  140.4130  167.1488 C.3     1  UNL1        0.0855
     24 N         141.2369  140.7573  166.3950 N.3     1  UNL1       -0.2971
     25 H         140.9957  141.1942  165.5055 H       1  UNL1        0.1233
     26 C         138.9021  139.4881  166.6817 C.3     1  UNL1        0.1470
     27 O         138.0088  138.8147  167.6810 O.3     1  UNL1       -0.3787
     28 H         137.3671  138.2554  167.2159 H       1  UNL1        0.2108
     29 C         138.7107  139.2365  165.2154 C.ar    1  UNL1        0.0055
     30 C         138.1711  140.3224  164.3324 C.ar    1  UNL1       -0.0019
     31 C         137.9797  140.0709  162.8661 C.ar    1  UNL1       -0.0002
     32 C         138.3278  138.7335  162.2828 C.ar    1  UNL1       -0.0000
     33 C         138.8674  137.6477  163.1658 C.ar    1  UNL1       -0.0002
     34 C         139.0588  137.8992  164.6321 C.ar    1  UNL1       -0.0019
@<TRIPOS>BOND
     1     7     8    2
     2     8    11    1
     3    11    12    1
     4    12    13   ar
     5    13    14   ar
     6    14    15   ar
     7    15    16   ar
     8    16    17   ar
     9    17    18    2
    10     8     9   am
    11     9     1    1
    12     1     2   ar
    13     2     3   ar
    14     3     4   ar
    15     4    19    1
    16    20    19    1
    17    20    21    1
    18    21    22    1
    19    23    22    1
    20    23    26    1
    21    26    27    1
    22    26    29    1
    23    29    30   ar
    24    30    31   ar
    25    31    32   ar
    26    32    33   ar
    27    33    34   ar
    28    23    24    1
    29     4     5   ar
    30     5     6   ar
    31    17    12   ar
    32     6     1   ar
    33    24    20    1
    34    34    29   ar
    35     9    10    1
    36    27    28    1
    37    24    25    1
@<TRIPOS>MOLECULE
*****
 34 37 0 0 0
SMALL
GASTEIGER

@<TRIPOS>ATOM
      1 C         143.7023  139.2291  160.0205 C.ar    1  UNL1        0.0503
      2 C         143.6903  138.0541  160.9529 C.ar    1  UNL1        0.0143
      3 C         143.9617  138.2539  162.4146 C.ar    1  UNL1       -0.0029
      4 C         144.2452  139.6286  162.9438 C.ar    1  UNL1       -0.0208
      5 C         144.2573  140.8034  162.0113 C.ar    1  UNL1       -0.0029
      6 C         143.9858  140.6037  160.5496 C.ar    1  UNL1        0.0143
      7 O         140.9104  138.6693  159.0761 O.2     1  UNL1       -0.2727
      8 C         142.0350  138.7494  158.0866 C.2     1  UNL1        0.2493
      9 N         143.4309  139.0293  158.5588 N.am    1  UNL1       -0.2823
     10 H         144.1690  139.0819  157.9094 H       1  UNL1        0.1549
     11 C         141.7635  138.5497  156.6250 C.3     1  UNL1        0.1957
     12 N         142.0089  137.2117  155.9926 N.ar    1  UNL1       -0.2690
     13 C         140.8571  136.2935  155.7094 C.ar    1  UNL1        0.1812
     14 N         141.1025  134.9557  155.0770 N.ar    1  UNL1       -0.2236
     15 C         142.4996  134.5361  154.7278 C.ar    1  UNL1        0.1055
     16 C         143.6514  135.4543  155.0111 C.ar    1  UNL1        0.0815
     17 C         143.4060  136.7921  155.6434 C.ar    1  UNL1        0.2641
     18 O         144.5578  137.7104  155.9267 O.2     1  UNL1       -0.2669
     19 C         144.5167  139.8283  164.4054 C.3     1  UNL1        0.0420
     20 C         143.4027  140.2272  165.3274 C.3     1  UNL1        0.0585
     21 C         142.9596  139.4793  166.5499 C.3     1  UNL1        0.0175
     22 C         141.8194  140.2338  167.1669 C.3     1  UNL1        0.0199
     23 C         141.5578  141.4479  166.3257 C.3     1  UNL1        0.0855
     24 N         142.5364  141.4438  165.1889 N.3     1  UNL1       -0.2971
     25 H         143.1124  142.2848  165.2250 H       1  UNL1        0.1233
     26 C         140.5030  142.4842  166.5773 C.3     1  UNL1        0.1470
     27 O         140.3488  143.0809  167.9448 O.3     1  UNL1       -0.3787
     28 H         139.6272  143.7290  167.9353 H       1  UNL1        0.2108
     29 C         139.6022  142.9239  165.4613 C.ar    1  UNL1        0.0055
     30 C         138.5893  141.9728  164.8962 C.ar    1  UNL1       -0.0019
     31 C         137.6886  142.4124  163.7802 C.ar    1  UNL1       -0.0002
     32 C         137.8007  143.8031  163.2294 C.ar    1  UNL1       -0.0000
     33 C         138.8136  144.7541  163.7946 C.ar    1  UNL1       -0.0002
     34 C         139.7144  144.3145  164.9105 C.ar    1  UNL1       -0.0019
@<TRIPOS>BOND
     1     7     8    2
     2     8    11    1
     3    11    12    1
     4    12    13   ar
     5    13    14   ar
     6    14    15   ar
     7    15    16   ar
     8    16    17   ar
     9    17    18    2
    10     8     9   am
    11     9     1    1
    12     1     2   ar
    13     2     3   ar
    14     3     4   ar
    15     4    19    1
    16    20    19    1
    17    20    21    1
    18    21    22    1
    19    23    22    1
    20    23    26    1
    21    26    27    1
    22    26    29    1
    23    29    30   ar
    24    30    31   ar
    25    31    32   ar
    26    32    33   ar
    27    33    34   ar
    28    23    24    1
    29     4     5   ar
    30     5     6   ar
    31    17    12   ar
    32     6     1   ar
    33    24    20    1
    34    34    29   ar
    35     9    10    1
    36    27    28    1
    37    24    25    1
@<TRIPOS>MOLECULE
*****
 34 37 0 0 0
SMALL
GASTEIGER

@<TRIPOS>ATOM
      1 C         137.3776  143.3615  156.1429 C.ar    1  UNL1        0.0503
      2 C         138.1190  144.4522  155.4281 C.ar    1  UNL1        0.0143
      3 C         139.4653  144.8922  155.9220 C.ar    1  UNL1       -0.0029
      4 C         140.0702  144.2416  157.1306 C.ar    1  UNL1       -0.0208
      5 C         139.3288  143.1509  157.8453 C.ar    1  UNL1       -0.0029
      6 C         137.9826  142.7109  157.3515 C.ar    1  UNL1        0.0143
      7 O         137.1713  141.1837  154.0899 O.2     1  UNL1       -0.2727
      8 C         135.9281  141.8326  154.6226 C.2     1  UNL1        0.2493
      9 N         136.0313  142.9215  155.6490 N.am    1  UNL1       -0.2823
     10 H         135.2155  143.3474  155.9986 H       1  UNL1        0.1549
     11 C         134.5819  141.3926  154.1287 C.3     1  UNL1        0.1957
     12 N         133.6137  140.7405  155.0709 N.ar    1  UNL1       -0.2690
     13 C         132.3125  141.4133  155.3935 C.ar    1  UNL1        0.1812
     14 N         131.3444  140.7613  156.3356 N.ar    1  UNL1       -0.2236
     15 C         131.6776  139.4365  156.9552 C.ar    1  UNL1        0.1055
     16 C         132.9788  138.7637  156.6326 C.ar    1  UNL1        0.0815
     17 C         133.9469  139.4157  155.6905 C.ar    1  UNL1        0.2641
     18 O         135.2482  138.7429  155.3678 O.2     1  UNL1       -0.2669
     19 C         141.4165  144.6816  157.6245 C.3     1  UNL1        0.0420
     20 C         141.8241  144.4016  159.0407 C.3     1  UNL1        0.0585
     21 C         142.7389  143.3026  159.4939 C.3     1  UNL1        0.0175
     22 C         142.8687  143.3931  160.9856 C.3     1  UNL1        0.0199
     23 C         142.0342  144.5482  161.4542 C.3     1  UNL1        0.0855
     24 N         141.3886  145.1714  160.2522 N.3     1  UNL1       -0.2971
     25 H         141.6815  146.1447  160.1675 H       1  UNL1        0.1233
     26 C         141.8734  145.0005  162.8752 C.3     1  UNL1        0.1470
     27 O         141.1103  146.2551  163.1812 O.3     1  UNL1       -0.3787
     28 H         141.1013  146.4023  164.1399 H       1  UNL1        0.2108
     29 C         142.4758  144.1983  163.9904 C.ar    1  UNL1        0.0055
     30 C         141.6245  143.2403  164.7698 C.ar    1  UNL1       -0.0019
     31 C         142.2268  142.4382  165.8850 C.ar    1  UNL1       -0.0002
     32 C         143.6804  142.5940  166.2208 C.ar    1  UNL1       -0.0000
     33 C         144.5317  143.5519  165.4414 C.ar    1  UNL1       -0.0002
     34 C         143.9294  144.3541  164.3262 C.ar    1  UNL1       -0.0019
@<TRIPOS>BOND
     1     7     8    2
     2     8    11    1
     3    11    12    1
     4    12    13   ar
     5    13    14   ar
     6    14    15   ar
     7    15    16   ar
     8    16    17   ar
     9    17    18    2
    10     8     9   am
    11     9     1    1
    12     1     2   ar
    13     2     3   ar
    14     3     4   ar
    15     4    19    1
    16    20    19    1
    17    20    21    1
    18    21    22    1
    19    23    22    1
    20    23    26    1
    21    26    27    1
    22    26    29    1
    23    29    30   ar
    24    30    31   ar
    25    31    32   ar
    26    32    33   ar
    27    33    34   ar
    28    23    24    1
    29     4     5   ar
    30     5     6   ar
    31    17    12   ar
    32     6     1   ar
    33    24    20    1
    34    34    29   ar
    35     9    10    1
    36    27    28    1
    37    24    25    1
@<TRIPOS>MOLECULE
*****
 34 37 0 0 0
SMALL
GASTEIGER

@<TRIPOS>ATOM
      1 C         143.9533  143.1464  162.4026 C.ar    1  UNL1        0.0503
      2 C         144.6700  142.0095  163.0688 C.ar    1  UNL1        0.0143
      3 C         144.4524  141.7377  164.5279 C.ar    1  UNL1       -0.0029
      4 C         143.5181  142.6030  165.3207 C.ar    1  UNL1       -0.0208
      5 C         142.8015  143.7399  164.6545 C.ar    1  UNL1       -0.0029
      6 C         143.0191  144.0116  163.1955 C.ar    1  UNL1        0.0143
      7 O         142.0001  142.1084  160.3759 O.2     1  UNL1       -0.2727
      8 C         143.1944  142.8992  159.9302 C.2     1  UNL1        0.2493
      9 N         144.1709  143.4182  160.9436 N.am    1  UNL1       -0.2823
     10 H         144.9547  143.9372  160.6511 H       1  UNL1        0.1549
     11 C         143.4120  143.1709  158.4712 C.3     1  UNL1        0.1957
     12 N         142.2466  143.5085  157.5892 N.ar    1  UNL1       -0.2690
     13 C         141.5675  142.4300  156.7982 C.ar    1  UNL1        0.1812
     14 N         140.4021  142.7676  155.9163 N.ar    1  UNL1       -0.2236
     15 C         139.9158  144.1837  155.8253 C.ar    1  UNL1        0.1055
     16 C         140.5949  145.2622  156.6163 C.ar    1  UNL1        0.0815
     17 C         141.7603  144.9246  157.4982 C.ar    1  UNL1        0.2641
     18 O         142.4394  146.0031  158.2893 O.2     1  UNL1       -0.2669
     19 C         143.3005  142.3312  166.7798 C.3     1  UNL1        0.0420
     20 C         142.1682  141.4502  167.2179 C.3     1  UNL1        0.0585
     21 C         141.9234  140.9578  168.6134 C.3     1  UNL1        0.0175
     22 C         140.6858  140.1102  168.5954 C.3     1  UNL1        0.0199
     23 C         140.1660  140.0789  167.1887 C.3     1  UNL1        0.0855
     24 N         141.0821  140.9070  166.3374 N.3     1  UNL1       -0.2971
     25 H         140.5616  141.6760  165.9154 H       1  UNL1        0.1233
     26 C         138.9445  139.3477  166.7163 C.3     1  UNL1        0.1470
     27 O         137.9734  138.7875  167.7129 O.3     1  UNL1       -0.3787
     28 H         137.2460  138.3492  167.2443 H       1  UNL1        0.2108
     29 C         138.6938  139.1768  165.2473 C.ar    1  UNL1        0.0055
     30 C         139.0256  137.8770  164.5762 C.ar    1  UNL1       -0.0019
     31 C         138.7750  137.7059  163.1072 C.ar    1  UNL1       -0.0002
     32 C         138.1925  138.8347  162.3094 C.ar    1  UNL1       -0.0000
     33 C         137.8607  140.1345  162.9805 C.ar    1  UNL1       -0.0002
     34 C         138.1114  140.3055  164.4494 C.ar    1  UNL1       -0.0019
@<TRIPOS>BOND
     1     7     8    2
     2     8    11    1
     3    11    12    1
     4    12    13   ar
     5    13    14   ar
     6    14    15   ar
     7    15    16   ar
     8    16    17   ar
     9    17    18    2
    10     8     9   am
    11     9     1    1
    12     1     2   ar
    13     2     3   ar
    14     3     4   ar
    15     4    19    1
    16    20    19    1
    17    20    21    1
    18    21    22    1
    19    23    22    1
    20    23    26    1
    21    26    27    1
    22    26    29    1
    23    29    30   ar
    24    30    31   ar
    25    31    32   ar
    26    32    33   ar
    27    33    34   ar
    28    23    24    1
    29     4     5   ar
    30     5     6   ar
    31    17    12   ar
    32     6     1   ar
    33    24    20    1
    34    34    29   ar
    35     9    10    1
    36    27    28    1
    37    24    25    1
@<TRIPOS>MOLECULE
*****
 34 37 0 0 0
SMALL
GASTEIGER

@<TRIPOS>ATOM
      1 C         142.0488  136.3693  156.6040 C.ar    1  UNL1        0.0503
      2 C         142.7853  137.1955  157.6165 C.ar    1  UNL1        0.0143
      3 C         142.0842  138.3192  158.3207 C.ar    1  UNL1       -0.0029
      4 C         140.6467  138.6168  158.0123 C.ar    1  UNL1       -0.0208
      5 C         139.9103  137.7906  156.9998 C.ar    1  UNL1       -0.0029
      6 C         140.6114  136.6669  156.2957 C.ar    1  UNL1        0.0143
      7 O         143.3593  134.1886  158.1937 O.2     1  UNL1       -0.2727
      8 C         143.4051  134.1553  156.6947 C.2     1  UNL1        0.2493
      9 N         142.7499  135.2456  155.8999 N.am    1  UNL1       -0.2823
     10 H         142.7800  135.2238  154.9161 H       1  UNL1        0.1549
     11 C         144.1062  133.0316  155.9906 C.3     1  UNL1        0.1957
     12 N         143.9457  131.6230  156.4809 N.ar    1  UNL1       -0.2690
     13 C         142.9523  130.7095  155.8260 C.ar    1  UNL1        0.1812
     14 N         142.7919  129.3011  156.3164 N.ar    1  UNL1       -0.2236
     15 C         143.6247  128.8061  157.4615 C.ar    1  UNL1        0.1055
     16 C         144.6180  129.7196  158.1164 C.ar    1  UNL1        0.0815
     17 C         144.7785  131.1280  157.6261 C.ar    1  UNL1        0.2641
     18 O         145.7718  132.0416  158.2809 O.2     1  UNL1       -0.2669
     19 C         139.9456  139.7405  158.7164 C.3     1  UNL1        0.0420
     20 C         139.4011  139.5355  160.0990 C.3     1  UNL1        0.0585
     21 C         139.3365  138.2310  160.8367 C.3     1  UNL1        0.0175
     22 C         138.7211  138.4884  162.1803 C.3     1  UNL1        0.0199
     23 C         138.4055  139.9519  162.2729 C.3     1  UNL1        0.0855
     24 N         138.8258  140.5991  160.9866 N.3     1  UNL1       -0.2971
     25 H         139.5299  141.3132  161.1724 H       1  UNL1        0.1233
     26 C         137.7795  140.6463  163.4459 C.3     1  UNL1        0.1470
     27 O         136.4916  141.3958  163.2739 O.3     1  UNL1       -0.3787
     28 H         136.2266  141.7824  164.1232 H       1  UNL1        0.2108
     29 C         138.4413  140.5913  164.7909 C.ar    1  UNL1        0.0055
     30 C         139.3924  141.6754  165.2036 C.ar    1  UNL1       -0.0019
     31 C         140.0542  141.6204  166.5485 C.ar    1  UNL1       -0.0002
     32 C         139.7650  140.4814  167.4808 C.ar    1  UNL1       -0.0000
     33 C         138.8140  139.3974  167.0680 C.ar    1  UNL1       -0.0002
     34 C         138.1522  139.4524  165.7231 C.ar    1  UNL1       -0.0019
@<TRIPOS>BOND
     1     7     8    2
     2     8    11    1
     3    11    12    1
     4    12    13   ar
     5    13    14   ar
     6    14    15   ar
     7    15    16   ar
     8    16    17   ar
     9    17    18    2
    10     8     9   am
    11     9     1    1
    12     1     2   ar
    13     2     3   ar
    14     3     4   ar
    15     4    19    1
    16    20    19    1
    17    20    21    1
    18    21    22    1
    19    23    22    1
    20    23    26    1
    21    26    27    1
    22    26    29    1
    23    29    30   ar
    24    30    31   ar
    25    31    32   ar
    26    32    33   ar
    27    33    34   ar
    28    23    24    1
    29     4     5   ar
    30     5     6   ar
    31    17    12   ar
    32     6     1   ar
    33    24    20    1
    34    34    29   ar
    35     9    10    1
    36    27    28    1
    37    24    25    1
@<TRIPOS>MOLECULE
*****
 34 37 0 0 0
SMALL
GASTEIGER

@<TRIPOS>ATOM
      1 C         139.2747  139.9486  165.6194 C.ar    1  UNL1        0.0503
      2 C         138.3435  140.7444  164.7535 C.ar    1  UNL1        0.0143
      3 C         137.9227  140.2107  163.4163 C.ar    1  UNL1       -0.0029
      4 C         138.4331  138.8812  162.9451 C.ar    1  UNL1       -0.0208
      5 C         139.3642  138.0854  163.8110 C.ar    1  UNL1       -0.0029
      6 C         139.7850  138.6192  165.1482 C.ar    1  UNL1        0.0143
      7 O         138.0093  138.8872  168.1239 O.2     1  UNL1       -0.2727
      8 C         139.0628  139.9517  168.2088 C.2     1  UNL1        0.2493
      9 N         139.6955  140.4824  166.9566 N.am    1  UNL1       -0.2823
     10 H         140.3869  141.1810  167.0124 H       1  UNL1        0.1549
     11 C         139.4836  140.4854  169.5460 C.3     1  UNL1        0.1957
     12 N         140.8554  141.0658  169.7240 N.ar    1  UNL1       -0.2690
     13 C         142.0603  140.1744  169.6651 C.ar    1  UNL1        0.1812
     14 N         143.4319  140.7548  169.8431 N.ar    1  UNL1       -0.2236
     15 C         143.5986  142.2266  170.0800 C.ar    1  UNL1        0.1055
     16 C         142.3937  143.1180  170.1389 C.ar    1  UNL1        0.0815
     17 C         141.0220  142.5376  169.9609 C.ar    1  UNL1        0.2641
     18 O         139.8170  143.4290  170.0198 O.2     1  UNL1       -0.2669
     19 C         138.0123  138.3474  161.6079 C.3     1  UNL1        0.0420
     20 C         138.3601  139.0990  160.3571 C.3     1  UNL1        0.0585
     21 C         139.7075  139.1402  159.6992 C.3     1  UNL1        0.0175
     22 C         139.6017  140.0080  158.4802 C.3     1  UNL1        0.0199
     23 C         138.1889  140.5030  158.3848 C.3     1  UNL1        0.0855
     24 N         137.4216  139.9412  159.5448 N.3     1  UNL1       -0.2971
     25 H         136.6492  139.3686  159.2042 H       1  UNL1        0.1233
     26 C         137.6399  141.4019  157.3170 C.3     1  UNL1        0.1470
     27 O         137.7478  142.8910  157.4616 O.3     1  UNL1       -0.3787
     28 H         137.3465  143.3207  156.6900 H       1  UNL1        0.2108
     29 C         136.9829  140.8119  156.1044 C.ar    1  UNL1        0.0055
     30 C         137.7065  139.7854  155.2842 C.ar    1  UNL1       -0.0019
     31 C         137.0496  139.1954  154.0717 C.ar    1  UNL1       -0.0002
     32 C         135.6691  139.6317  153.6794 C.ar    1  UNL1       -0.0000
     33 C         134.9456  140.6581  154.4996 C.ar    1  UNL1       -0.0002
     34 C         135.6025  141.2482  155.7122 C.ar    1  UNL1       -0.0019
@<TRIPOS>BOND
     1     7     8    2
     2     8    11    1
     3    11    12    1
     4    12    13   ar
     5    13    14   ar
     6    14    15   ar
     7    15    16   ar
     8    16    17   ar
     9    17    18    2
    10     8     9   am
    11     9     1    1
    12     1     2   ar
    13     2     3   ar
    14     3     4   ar
    15     4    19    1
    16    20    19    1
    17    20    21    1
    18    21    22    1
    19    23    22    1
    20    23    26    1
    21    26    27    1
    22    26    29    1
    23    29    30   ar
    24    30    31   ar
    25    31    32   ar
    26    32    33   ar
    27    33    34   ar
    28    23    24    1
    29     4     5   ar
    30     5     6   ar
    31    17    12   ar
    32     6     1   ar
    33    24    20    1
    34    34    29   ar
    35     9    10    1
    36    27    28    1
    37    24    25    1
