@<TRIPOS>MOLECULE
*****
 19 21 0 0 0
SMALL
GASTEIGER

@<TRIPOS>ATOM
      1 N         138.5692  140.0790  165.3831 N.3     1  UNL1       -0.2724
      2 C         137.7860  140.7977  164.3248 C.3     1  UNL1        0.0724
      3 C         138.3139  142.1985  164.2285 C.3     1  UNL1        0.0210
      4 C         137.9277  143.3591  163.3603 C.3     1  UNL1        0.0017
      5 C         138.6509  144.6667  163.4910 C.3     1  UNL1        0.0001
      6 C         139.7603  144.8137  164.4898 C.3     1  UNL1        0.0004
      7 C         140.1465  143.6531  165.3580 C.3     1  UNL1        0.0054
      8 C         139.4233  142.3455  165.2273 C.3     1  UNL1        0.0349
      9 C         139.5810  141.0355  165.9409 C.3     1  UNL1        0.0761
     10 C         140.5063  142.3427  166.2652 C.ar    1  UNL1       -0.0206
     11 C         141.8883  141.8833  165.9058 C.ar    1  UNL1       -0.0033
     12 C         142.9712  141.8805  166.9437 C.ar    1  UNL1        0.0119
     13 C         142.6722  142.3371  168.3408 C.ar    1  UNL1        0.0682
     14 CL        143.7552  142.3343  169.3787 Cl      1  UNL1       -0.0814
     15 C         141.2903  142.7964  168.7002 C.ar    1  UNL1        0.0679
     16 CL        140.9912  143.2529  170.0975 Cl      1  UNL1       -0.0814
     17 C         140.2073  142.7992  167.6624 C.ar    1  UNL1        0.0080
     18 C         137.5836  138.3417  167.0445 C.3     1  UNL1        0.0188
     19 C         138.3746  138.6539  165.8089 C.3     1  UNL1        0.0721
@<TRIPOS>BOND
     1    18    19    1
     2    19     1    1
     3     1     2    1
     4     3     2    1
     5     3     4    1
     6     4     5    1
     7     5     6    1
     8     6     7    1
     9     7     8    1
    10     8    10    1
    11    10    11   ar
    12    11    12   ar
    13    12    13   ar
    14    13    14    1
    15    13    15   ar
    16    15    16    1
    17    15    17   ar
    18     8     9    1
    19     9     1    1
    20     8     3    1
    21    17    10   ar
@<TRIPOS>MOLECULE
*****
 19 21 0 0 0
SMALL
GASTEIGER

@<TRIPOS>ATOM
      1 N         139.3718  139.5853  165.9308 N.3     1  UNL1       -0.2724
      2 C         138.9663  139.3046  167.3474 C.3     1  UNL1        0.0724
      3 C         139.4280  140.4509  168.1976 C.3     1  UNL1        0.0210
      4 C         139.3086  140.7218  169.6681 C.3     1  UNL1        0.0017
      5 C         139.8800  141.9819  170.2474 C.3     1  UNL1        0.0001
      6 C         140.5709  142.9711  169.3562 C.3     1  UNL1        0.0004
      7 C         140.6902  142.7002  167.8857 C.3     1  UNL1        0.0054
      8 C         140.1188  141.4402  167.3064 C.3     1  UNL1        0.0349
      9 C         140.0841  140.9052  165.9055 C.3     1  UNL1        0.0761
     10 C         140.7786  142.3316  166.2964 C.ar    1  UNL1       -0.0206
     11 C         139.9588  143.3151  165.5150 C.ar    1  UNL1       -0.0033
     12 C         140.6185  144.2065  164.5051 C.ar    1  UNL1        0.0119
     13 C         142.0981  144.1144  164.2765 C.ar    1  UNL1        0.0682
     14 CL        142.7579  145.0058  163.2664 Cl      1  UNL1       -0.0814
     15 C         142.9179  143.1309  165.0578 C.ar    1  UNL1        0.0679
     16 CL        144.3976  143.0388  164.8291 Cl      1  UNL1       -0.0814
     17 C         142.2582  142.2395  166.0678 C.ar    1  UNL1        0.0080
     18 C         140.1238  137.6721  164.3421 C.3     1  UNL1        0.0188
     19 C         139.1108  138.7014  164.7474 C.3     1  UNL1        0.0721
@<TRIPOS>BOND
     1    18    19    1
     2    19     1    1
     3     1     2    1
     4     3     2    1
     5     3     4    1
     6     4     5    1
     7     5     6    1
     8     6     7    1
     9     7     8    1
    10     8    10    1
    11    10    11   ar
    12    11    12   ar
    13    12    13   ar
    14    13    14    1
    15    13    15   ar
    16    15    16    1
    17    15    17   ar
    18     8     9    1
    19     9     1    1
    20     8     3    1
    21    17    10   ar
@<TRIPOS>MOLECULE
*****
 19 21 0 0 0
SMALL
GASTEIGER

@<TRIPOS>ATOM
      1 N         142.4881  139.7887  164.9905 N.3     1  UNL1       -0.2724
      2 C         141.7832  138.5951  164.4174 C.3     1  UNL1        0.0724
      3 C         140.4719  138.4447  165.1300 C.3     1  UNL1        0.0210
      4 C         139.3604  137.4478  164.9869 C.3     1  UNL1        0.0017
      5 C         138.1433  137.5515  165.8573 C.3     1  UNL1        0.0001
      6 C         138.0377  138.6521  166.8710 C.3     1  UNL1        0.0004
      7 C         139.1492  139.6491  167.0141 C.3     1  UNL1        0.0054
      8 C         140.3663  139.5454  166.1436 C.3     1  UNL1        0.0349
      9 C         141.6124  140.3760  166.0574 C.3     1  UNL1        0.0761
     10 C         140.4018  140.6939  167.1078 C.ar    1  UNL1       -0.0206
     11 C         140.1537  142.0905  166.6201 C.ar    1  UNL1       -0.0033
     12 C         140.1892  143.2390  167.5842 C.ar    1  UNL1        0.0119
     13 C         140.4729  142.9909  169.0361 C.ar    1  UNL1        0.0682
     14 CL        140.5084  144.1394  170.0003 Cl      1  UNL1       -0.0814
     15 C         140.7210  141.5944  169.5239 C.ar    1  UNL1        0.0679
     16 CL        141.0047  141.3462  170.9758 Cl      1  UNL1       -0.0814
     17 C         140.6855  140.4458  168.5597 C.ar    1  UNL1        0.0080
     18 C         144.9899  139.3597  164.4364 C.3     1  UNL1        0.0188
     19 C         143.8326  140.3045  164.5706 C.3     1  UNL1        0.0721
@<TRIPOS>BOND
     1    18    19    1
     2    19     1    1
     3     1     2    1
     4     3     2    1
     5     3     4    1
     6     4     5    1
     7     5     6    1
     8     6     7    1
     9     7     8    1
    10     8    10    1
    11    10    11   ar
    12    11    12   ar
    13    12    13   ar
    14    13    14    1
    15    13    15   ar
    16    15    16    1
    17    15    17   ar
    18     8     9    1
    19     9     1    1
    20     8     3    1
    21    17    10   ar
@<TRIPOS>MOLECULE
*****
 19 21 0 0 0
SMALL
GASTEIGER

@<TRIPOS>ATOM
      1 N         139.6581  142.4842  164.5573 N.3     1  UNL1       -0.2724
      2 C         139.0419  141.8087  163.3682 C.3     1  UNL1        0.0724
      3 C         139.0603  140.3291  163.6144 C.3     1  UNL1        0.0210
      4 C         138.5866  139.1686  162.7905 C.3     1  UNL1        0.0017
      5 C         138.7406  137.7692  163.3079 C.3     1  UNL1        0.0001
      6 C         139.3683  137.5302  164.6492 C.3     1  UNL1        0.0004
      7 C         139.8420  138.6908  165.4730 C.3     1  UNL1        0.0054
      8 C         139.6880  140.0902  164.9556 C.3     1  UNL1        0.0349
      9 C         140.0574  141.4221  165.5383 C.3     1  UNL1        0.0761
     10 C         140.3315  140.0071  166.3080 C.ar    1  UNL1       -0.0206
     11 C         141.8040  139.7454  166.4232 C.ar    1  UNL1       -0.0033
     12 C         142.4474  139.6623  167.7755 C.ar    1  UNL1        0.0119
     13 C         141.6185  139.8409  169.0128 C.ar    1  UNL1        0.0682
     14 CL        142.2620  139.7577  170.3652 Cl      1  UNL1       -0.0814
     15 C         140.1460  140.1026  168.8977 C.ar    1  UNL1        0.0679
     16 CL        139.3170  140.2812  170.1351 Cl      1  UNL1       -0.0814
     17 C         139.5025  140.1857  167.5453 C.ar    1  UNL1        0.0080
     18 C         138.7606  144.7822  165.3720 C.3     1  UNL1        0.0188
     19 C         139.8427  143.9623  164.7342 C.3     1  UNL1        0.0721
@<TRIPOS>BOND
     1    18    19    1
     2    19     1    1
     3     1     2    1
     4     3     2    1
     5     3     4    1
     6     4     5    1
     7     5     6    1
     8     6     7    1
     9     7     8    1
    10     8    10    1
    11    10    11   ar
    12    11    12   ar
    13    12    13   ar
    14    13    14    1
    15    13    15   ar
    16    15    16    1
    17    15    17   ar
    18     8     9    1
    19     9     1    1
    20     8     3    1
    21    17    10   ar
@<TRIPOS>MOLECULE
*****
 19 21 0 0 0
SMALL
GASTEIGER

@<TRIPOS>ATOM
      1 N         140.9397  142.7763  164.2399 N.3     1  UNL1       -0.2724
      2 C         139.9469  141.8320  163.6295 C.3     1  UNL1        0.0724
      3 C         139.4395  140.9282  164.7138 C.3     1  UNL1        0.0210
      4 C         138.4468  139.8038  164.7005 C.3     1  UNL1        0.0017
      5 C         138.1333  139.0652  165.9678 C.3     1  UNL1        0.0001
      6 C         138.8125  139.4510  167.2484 C.3     1  UNL1        0.0004
      7 C         139.8052  140.5753  167.2617 C.3     1  UNL1        0.0054
      8 C         140.1188  141.3140  165.9944 C.3     1  UNL1        0.0349
      9 C         141.0459  142.4562  165.7015 C.3     1  UNL1        0.0761
     10 C         140.8731  141.8100  167.1923 C.ar    1  UNL1       -0.0206
     11 C         142.2316  141.2564  167.5052 C.ar    1  UNL1       -0.0033
     12 C         142.9859  141.7525  168.7030 C.ar    1  UNL1        0.0119
     13 C         142.3817  142.8021  169.5880 C.ar    1  UNL1        0.0682
     14 CL        143.1360  143.2982  170.7859 Cl      1  UNL1       -0.0814
     15 C         141.0233  143.3558  169.2751 C.ar    1  UNL1        0.0679
     16 CL        140.4190  144.4055  170.1600 Cl      1  UNL1       -0.0814
     17 C         140.2689  142.8597  168.0772 C.ar    1  UNL1        0.0080
     18 C         141.0372  145.1717  163.2386 C.3     1  UNL1        0.0188
     19 C         141.6939  143.8520  163.5159 C.3     1  UNL1        0.0721
@<TRIPOS>BOND
     1    18    19    1
     2    19     1    1
     3     1     2    1
     4     3     2    1
     5     3     4    1
     6     4     5    1
     7     5     6    1
     8     6     7    1
     9     7     8    1
    10     8    10    1
    11    10    11   ar
    12    11    12   ar
    13    12    13   ar
    14    13    14    1
    15    13    15   ar
    16    15    16    1
    17    15    17   ar
    18     8     9    1
    19     9     1    1
    20     8     3    1
    21    17    10   ar
@<TRIPOS>MOLECULE
*****
 19 21 0 0 0
SMALL
GASTEIGER

@<TRIPOS>ATOM
      1 N         139.2257  139.6708  167.9998 N.3     1  UNL1       -0.2724
      2 C         139.1048  140.3222  169.3455 C.3     1  UNL1        0.0724
      3 C         140.4291  140.9416  169.6814 C.3     1  UNL1        0.0210
      4 C         140.9009  141.7155  170.8765 C.3     1  UNL1        0.0017
      5 C         142.3121  142.2207  170.9335 C.3     1  UNL1        0.0001
      6 C         143.2515  141.9520  169.7953 C.3     1  UNL1        0.0004
      7 C         142.7796  141.1781  168.6002 C.3     1  UNL1        0.0054
      8 C         141.3684  140.6729  168.5432 C.3     1  UNL1        0.0349
      9 C         140.6247  139.8875  167.5039 C.3     1  UNL1        0.0761
     10 C         142.1890  140.3285  167.3357 C.ar    1  UNL1       -0.0206
     11 C         142.8697  138.9948  167.2469 C.ar    1  UNL1       -0.0033
     12 C         143.6902  138.6504  166.0395 C.ar    1  UNL1        0.0119
     13 C         143.8300  139.6397  164.9207 C.ar    1  UNL1        0.0682
     14 CL        144.6506  139.2953  163.7132 Cl      1  UNL1       -0.0814
     15 C         143.1494  140.9733  165.0093 C.ar    1  UNL1        0.0679
     16 CL        143.2892  141.9627  163.8905 Cl      1  UNL1       -0.0814
     17 C         142.3288  141.3178  166.2169 C.ar    1  UNL1        0.0080
     18 C         138.3643  138.4488  165.8750 C.3     1  UNL1        0.0188
     19 C         138.1385  138.9323  167.2769 C.3     1  UNL1        0.0721
@<TRIPOS>BOND
     1    18    19    1
     2    19     1    1
     3     1     2    1
     4     3     2    1
     5     3     4    1
     6     4     5    1
     7     5     6    1
     8     6     7    1
     9     7     8    1
    10     8    10    1
    11    10    11   ar
    12    11    12   ar
    13    12    13   ar
    14    13    14    1
    15    13    15   ar
    16    15    16    1
    17    15    17   ar
    18     8     9    1
    19     9     1    1
    20     8     3    1
    21    17    10   ar
@<TRIPOS>MOLECULE
*****
 19 21 0 0 0
SMALL
GASTEIGER

@<TRIPOS>ATOM
      1 N         141.7484  140.7106  169.0032 N.3     1  UNL1       -0.2724
      2 C         140.3419  140.1946  169.0781 C.3     1  UNL1        0.0724
      3 C         139.8994  139.8511  167.6866 C.3     1  UNL1        0.0210
      4 C         138.6112  139.3011  167.1501 C.3     1  UNL1        0.0017
      5 C         138.4560  139.0547  165.6786 C.3     1  UNL1        0.0001
      6 C         139.5891  139.3584  164.7437 C.3     1  UNL1        0.0004
      7 C         140.8773  139.9084  165.2803 C.3     1  UNL1        0.0054
      8 C         141.0324  140.1548  166.7517 C.3     1  UNL1        0.0349
      9 C         142.1751  140.6860  167.5654 C.3     1  UNL1        0.0761
     10 C         142.2464  140.5049  165.9431 C.ar    1  UNL1       -0.0206
     11 C         143.1598  139.4205  165.4536 C.ar    1  UNL1       -0.0033
     12 C         144.3737  139.7706  164.6450 C.ar    1  UNL1        0.0119
     13 C         144.6742  141.2051  164.3259 C.ar    1  UNL1        0.0682
     14 CL        145.8881  141.5552  163.5173 Cl      1  UNL1       -0.0814
     15 C         143.7608  142.2895  164.8154 C.ar    1  UNL1        0.0679
     16 CL        144.0613  143.7241  164.4963 Cl      1  UNL1       -0.0814
     17 C         142.5469  141.9394  165.6240 C.ar    1  UNL1        0.0080
     18 C         143.7149  142.1274  169.9388 C.3     1  UNL1        0.0188
     19 C         142.5817  141.1704  170.1625 C.3     1  UNL1        0.0721
@<TRIPOS>BOND
     1    18    19    1
     2    19     1    1
     3     1     2    1
     4     3     2    1
     5     3     4    1
     6     4     5    1
     7     5     6    1
     8     6     7    1
     9     7     8    1
    10     8    10    1
    11    10    11   ar
    12    11    12   ar
    13    12    13   ar
    14    13    14    1
    15    13    15   ar
    16    15    16    1
    17    15    17   ar
    18     8     9    1
    19     9     1    1
    20     8     3    1
    21    17    10   ar
@<TRIPOS>MOLECULE
*****
 19 21 0 0 0
SMALL
GASTEIGER

@<TRIPOS>ATOM
      1 N         142.8246  139.7256  165.5861 N.3     1  UNL1       -0.2724
      2 C         143.1625  139.1227  166.9174 C.3     1  UNL1        0.0724
      3 C         142.1546  139.6093  167.9160 C.3     1  UNL1        0.0210
      4 C         141.9876  139.3463  169.3832 C.3     1  UNL1        0.0017
      5 C         140.8597  139.9870  170.1364 C.3     1  UNL1        0.0001
      6 C         139.8987  140.8907  169.4223 C.3     1  UNL1        0.0004
      7 C         140.0657  141.1537  167.9550 C.3     1  UNL1        0.0054
      8 C         141.1936  140.5130  167.2019 C.3     1  UNL1        0.0349
      9 C         141.6077  140.5849  165.7620 C.3     1  UNL1        0.0761
     10 C         140.3161  141.3890  166.3577 C.ar    1  UNL1       -0.0206
     11 C         140.4470  142.8812  166.4372 C.ar    1  UNL1       -0.0033
     12 C         139.5696  143.7571  165.5930 C.ar    1  UNL1        0.0119
     13 C         138.5611  143.1409  164.6693 C.ar    1  UNL1        0.0682
     14 CL        137.6836  144.0169  163.8251 Cl      1  UNL1       -0.0814
     15 C         138.4301  141.6488  164.5897 C.ar    1  UNL1        0.0679
     16 CL        137.4216  141.0325  163.6660 Cl      1  UNL1       -0.0814
     17 C         139.3076  140.7728  165.4339 C.ar    1  UNL1        0.0080
     18 C         145.0282  139.8574  164.2161 C.3     1  UNL1        0.0188
     19 C         143.5722  139.5076  164.3041 C.3     1  UNL1        0.0721
@<TRIPOS>BOND
     1    18    19    1
     2    19     1    1
     3     1     2    1
     4     3     2    1
     5     3     4    1
     6     4     5    1
     7     5     6    1
     8     6     7    1
     9     7     8    1
    10     8    10    1
    11    10    11   ar
    12    11    12   ar
    13    12    13   ar
    14    13    14    1
    15    13    15   ar
    16    15    16    1
    17    15    17   ar
    18     8     9    1
    19     9     1    1
    20     8     3    1
    21    17    10   ar
@<TRIPOS>MOLECULE
*****
 19 21 0 0 0
SMALL
GASTEIGER

@<TRIPOS>ATOM
      1 N         141.2315  143.4011  164.3745 N.3     1  UNL1       -0.2724
      2 C         142.6633  143.3820  163.9276 C.3     1  UNL1        0.0724
      3 C         143.2169  142.0155  164.2035 C.3     1  UNL1        0.0210
      4 C         144.5723  141.4162  163.9722 C.3     1  UNL1        0.0017
      5 C         144.8382  139.9914  164.3584 C.3     1  UNL1        0.0001
      6 C         143.7486  139.1659  164.9759 C.3     1  UNL1        0.0004
      7 C         142.3932  139.7652  165.2072 C.3     1  UNL1        0.0054
      8 C         142.1273  141.1900  164.8210 C.3     1  UNL1        0.0349
      9 C         140.9003  142.0463  164.9267 C.3     1  UNL1        0.0761
     10 C         140.9458  140.4911  165.4257 C.ar    1  UNL1       -0.0206
     11 C         140.0556  139.6429  164.5667 C.ar    1  UNL1       -0.0033
     12 C         138.8742  138.9441  165.1714 C.ar    1  UNL1        0.0119
     13 C         138.5829  139.0935  166.6353 C.ar    1  UNL1        0.0682
     14 CL        137.4014  138.3946  167.2400 Cl      1  UNL1       -0.0814
     15 C         139.4730  139.9417  167.4943 C.ar    1  UNL1        0.0679
     16 CL        139.1818  140.0911  168.9583 Cl      1  UNL1       -0.0814
     17 C         140.6545  140.6405  166.8896 C.ar    1  UNL1        0.0080
     18 C         139.0544  144.6027  165.1269 C.3     1  UNL1        0.0188
     19 C         140.2954  144.5697  164.2851 C.3     1  UNL1        0.0721
@<TRIPOS>BOND
     1    18    19    1
     2    19     1    1
     3     1     2    1
     4     3     2    1
     5     3     4    1
     6     4     5    1
     7     5     6    1
     8     6     7    1
     9     7     8    1
    10     8    10    1
    11    10    11   ar
    12    11    12   ar
    13    12    13   ar
    14    13    14    1
    15    13    15   ar
    16    15    16    1
    17    15    17   ar
    18     8     9    1
    19     9     1    1
    20     8     3    1
    21    17    10   ar
