@<TRIPOS>MOLECULE
*****
 27 30 0 0 0
SMALL
GASTEIGER

@<TRIPOS>ATOM
      1 C         139.7441  139.3928  164.9764 C.ar    1  UNL1        0.1014
      2 C         139.2069  138.0411  164.6099 C.ar    1  UNL1        0.0240
      3 C         138.5669  137.8264  163.2705 C.ar    1  UNL1        0.0404
      4 C         138.4641  138.9634  162.2975 C.ar    1  UNL1        0.1639
      5 N         137.8901  139.0521  160.9144 N.ar    1  UNL1       -0.2234
      6 C         138.0726  140.4586  160.4262 C.ar    1  UNL1        0.1197
      7 C         138.7593  141.2392  161.5075 C.ar    1  UNL1        0.1037
      8 N         139.0013  140.3151  162.6640 N.ar    1  UNL1       -0.2107
      9 N         139.6413  140.5298  164.0034 N.ar    1  UNL1       -0.1638
     10 C         141.6644  140.0369  168.9949 C.ar    1  UNL1        0.1807
     11 C         140.1807  140.1928  168.8391 C.ar    1  UNL1        0.0520
     12 C         139.5406  139.9781  167.4995 C.ar    1  UNL1        0.0060
     13 C         140.3842  139.6075  166.3159 C.ar    1  UNL1        0.0196
     14 C         141.8680  139.4516  166.4718 C.ar    1  UNL1        0.0060
     15 C         142.5081  139.6663  167.8112 C.ar    1  UNL1        0.0520
     16 C         141.7618  141.2940  171.2664 C.3     1  UNL1        0.3254
     17 S         142.3045  140.2517  170.3343 S.O     1  UNL1        0.0581
     18 O         143.4873  139.4240  170.7417 O.co2   1  UNL1       -0.6774
     19 C         139.1377  142.6892  161.4435 C.ar    1  UNL1        0.0236
     20 C         138.7887  143.6062  162.5781 C.ar    1  UNL1        0.0018
     21 C         139.1671  145.0563  162.5142 C.ar    1  UNL1        0.0045
     22 C         139.8945  145.5895  161.3156 C.ar    1  UNL1        0.0519
     23 C         140.2435  144.6725  160.1810 C.ar    1  UNL1        0.1808
     24 C         139.8651  143.2224  160.2449 C.ar    1  UNL1        0.0535
     25 S         140.9709  145.2057  158.9823 S.O     1  UNL1        0.0581
     26 C         140.2234  145.9699  157.9300 C.3     1  UNL1        0.3254
     27 O         142.4457  144.9745  158.8359 O.co2   1  UNL1       -0.6774
@<TRIPOS>UNITY_ATOM_ATTR
17 1
charge 1
18 1
charge -1
25 1
charge 1
27 1
charge -1
@<TRIPOS>BOND
     1    16    17    1
     2    17    18    2
     3    17    10    1
     4    10    11   ar
     5    11    12   ar
     6    12    13   ar
     7    13     1    1
     8     1     2   ar
     9     2     3   ar
    10     3     4   ar
    11     4     5   ar
    12     5     6   ar
    13     6     7   ar
    14     7    19    1
    15    19    20   ar
    16    20    21   ar
    17    21    22   ar
    18    22    23   ar
    19    23    25    1
    20    25    26    1
    21    25    27    2
    22    23    24   ar
    23     7     8   ar
    24     8     9   ar
    25    13    14   ar
    26    14    15   ar
    27    15    10   ar
    28     9     1   ar
    29     8     4   ar
    30    24    19   ar
@<TRIPOS>MOLECULE
*****
 27 30 0 0 0
SMALL
GASTEIGER

@<TRIPOS>ATOM
      1 C         139.5869  139.7801  165.0235 C.ar    1  UNL1        0.1014
      2 C         139.0705  138.3724  164.9854 C.ar    1  UNL1        0.0240
      3 C         138.8432  137.6923  163.6679 C.ar    1  UNL1        0.0404
      4 C         139.1322  138.4201  162.3885 C.ar    1  UNL1        0.1639
      5 N         139.0065  138.0112  160.9507 N.ar    1  UNL1       -0.2234
      6 C         139.4451  139.1663  160.1003 C.ar    1  UNL1        0.1197
      7 C         139.8419  140.2891  161.0124 C.ar    1  UNL1        0.1037
      8 N         139.6485  139.8279  162.4266 N.ar    1  UNL1       -0.2107
      9 N         139.8759  140.5079  163.7441 N.ar    1  UNL1       -0.1638
     10 C         140.2689  141.8204  168.9761 C.ar    1  UNL1        0.1807
     11 C         140.7222  142.4762  167.7055 C.ar    1  UNL1        0.0520
     12 C         140.4949  141.7961  166.3879 C.ar    1  UNL1        0.0060
     13 C         139.8142  140.4602  166.3410 C.ar    1  UNL1        0.0196
     14 C         139.3609  139.8045  167.6116 C.ar    1  UNL1        0.0060
     15 C         139.5882  140.4845  168.9291 C.ar    1  UNL1        0.0520
     16 C         141.6131  142.0494  171.1875 C.3     1  UNL1        0.3254
     17 S         140.4962  142.5004  170.2936 S.O     1  UNL1        0.0581
     18 O         139.6066  143.6314  170.7172 O.co2   1  UNL1       -0.6774
     19 C         140.3440  141.6365  160.5854 C.ar    1  UNL1        0.0236
     20 C         141.1269  141.7766  159.3136 C.ar    1  UNL1        0.0018
     21 C         141.6289  143.1241  158.8865 C.ar    1  UNL1        0.0045
     22 C         141.3482  144.3314  159.7312 C.ar    1  UNL1        0.0519
     23 C         140.5653  144.1912  161.0030 C.ar    1  UNL1        0.1808
     24 C         140.0633  142.8438  161.4301 C.ar    1  UNL1        0.0535
     25 S         140.2845  145.3986  161.8479 S.O     1  UNL1        0.0581
     26 C         140.9573  145.5552  163.1793 C.3     1  UNL1        0.3254
     27 O         139.3309  146.4492  161.3611 O.co2   1  UNL1       -0.6774
@<TRIPOS>UNITY_ATOM_ATTR
17 1
charge 1
18 1
charge -1
25 1
charge 1
27 1
charge -1
@<TRIPOS>BOND
     1    16    17    1
     2    17    18    2
     3    17    10    1
     4    10    11   ar
     5    11    12   ar
     6    12    13   ar
     7    13     1    1
     8     1     2   ar
     9     2     3   ar
    10     3     4   ar
    11     4     5   ar
    12     5     6   ar
    13     6     7   ar
    14     7    19    1
    15    19    20   ar
    16    20    21   ar
    17    21    22   ar
    18    22    23   ar
    19    23    25    1
    20    25    26    1
    21    25    27    2
    22    23    24   ar
    23     7     8   ar
    24     8     9   ar
    25    13    14   ar
    26    14    15   ar
    27    15    10   ar
    28     9     1   ar
    29     8     4   ar
    30    24    19   ar
@<TRIPOS>MOLECULE
*****
 27 30 0 0 0
SMALL
GASTEIGER

@<TRIPOS>ATOM
      1 C         140.0736  139.2105  164.8856 C.ar    1  UNL1        0.1014
      2 C         139.4023  137.8978  164.6097 C.ar    1  UNL1        0.0240
      3 C         138.8432  137.6131  163.2473 C.ar    1  UNL1        0.0404
      4 C         138.9554  138.6411  162.1607 C.ar    1  UNL1        0.1639
      5 N         138.5025  138.6436  160.7307 N.ar    1  UNL1       -0.2234
      6 C         138.8939  139.9578  160.1228 C.ar    1  UNL1        0.1197
      7 C         139.5886  140.7676  161.1772 C.ar    1  UNL1        0.1037
      8 N         139.6266  139.9538  162.4366 N.ar    1  UNL1       -0.2107
      9 N         140.1857  140.2385  163.7991 N.ar    1  UNL1       -0.1638
     10 C         141.7509  140.0647  168.9731 C.ar    1  UNL1        0.1807
     11 C         142.6710  139.6996  167.8462 C.ar    1  UNL1        0.0520
     12 C         142.1119  139.4148  166.4837 C.ar    1  UNL1        0.0060
     13 C         140.6327  139.4952  166.2482 C.ar    1  UNL1        0.0196
     14 C         139.7126  139.8604  167.3751 C.ar    1  UNL1        0.0060
     15 C         140.2716  140.1452  168.7376 C.ar    1  UNL1        0.0520
     16 C         141.6875  141.4095  171.1951 C.3     1  UNL1        0.3254
     17 S         142.3099  140.3495  170.3356 S.O     1  UNL1        0.0581
     18 O         143.4915  139.5742  170.8385 O.co2   1  UNL1       -0.6774
     19 C         140.1473  142.1487  161.0027 C.ar    1  UNL1        0.0236
     20 C         139.5815  143.0596  159.9539 C.ar    1  UNL1        0.0018
     21 C         140.1401  144.4407  159.7794 C.ar    1  UNL1        0.0045
     22 C         141.2646  144.9109  160.6536 C.ar    1  UNL1        0.0519
     23 C         141.8305  144.0000  161.7024 C.ar    1  UNL1        0.1808
     24 C         141.2718  142.6189  161.8769 C.ar    1  UNL1        0.0535
     25 S         142.9551  144.4701  162.5767 S.O     1  UNL1        0.0581
     26 C         142.6577  145.1668  163.8714 C.3     1  UNL1        0.3254
     27 O         144.3770  144.2436  162.1563 O.co2   1  UNL1       -0.6774
@<TRIPOS>UNITY_ATOM_ATTR
17 1
charge 1
18 1
charge -1
25 1
charge 1
27 1
charge -1
@<TRIPOS>BOND
     1    16    17    1
     2    17    18    2
     3    17    10    1
     4    10    11   ar
     5    11    12   ar
     6    12    13   ar
     7    13     1    1
     8     1     2   ar
     9     2     3   ar
    10     3     4   ar
    11     4     5   ar
    12     5     6   ar
    13     6     7   ar
    14     7    19    1
    15    19    20   ar
    16    20    21   ar
    17    21    22   ar
    18    22    23   ar
    19    23    25    1
    20    25    26    1
    21    25    27    2
    22    23    24   ar
    23     7     8   ar
    24     8     9   ar
    25    13    14   ar
    26    14    15   ar
    27    15    10   ar
    28     9     1   ar
    29     8     4   ar
    30    24    19   ar
@<TRIPOS>MOLECULE
*****
 27 30 0 0 0
SMALL
GASTEIGER

@<TRIPOS>ATOM
      1 C         142.6759  139.5589  165.0991 C.ar    1  UNL1        0.1014
      2 C         144.1535  139.3622  164.9320 C.ar    1  UNL1        0.0240
      3 C         144.7319  139.1493  163.5645 C.ar    1  UNL1        0.0404
      4 C         143.8326  139.1331  162.3640 C.ar    1  UNL1        0.1639
      5 N         144.1131  138.9465  160.9023 N.ar    1  UNL1       -0.2234
      6 C         142.8088  139.0279  160.1660 C.ar    1  UNL1        0.1197
      7 C         141.7223  139.2648  161.1727 C.ar    1  UNL1        0.1037
      8 N         142.3550  139.3298  162.5311 N.ar    1  UNL1       -0.2107
      9 N         141.7767  139.5427  163.8986 N.ar    1  UNL1       -0.1638
     10 C         140.9407  140.1975  169.2017 C.ar    1  UNL1        0.1807
     11 C         140.1890  140.6605  167.9891 C.ar    1  UNL1        0.0520
     12 C         140.7674  140.4476  166.6215 C.ar    1  UNL1        0.0060
     13 C         142.0975  139.7718  166.4666 C.ar    1  UNL1        0.0196
     14 C         142.8492  139.3088  167.6793 C.ar    1  UNL1        0.0060
     15 C         142.2709  139.5217  169.0468 C.ar    1  UNL1        0.0520
     16 C         140.8026  141.5822  171.3956 C.3     1  UNL1        0.3254
     17 S         140.3623  140.4104  170.5692 S.O     1  UNL1        0.0581
     18 O         139.3437  139.4514  171.1104 O.co2   1  UNL1       -0.6774
     19 C         140.2597  139.4110  160.8734 C.ar    1  UNL1        0.0236
     20 C         139.2411  138.8276  161.8073 C.ar    1  UNL1        0.0018
     21 C         137.7786  138.9737  161.5081 C.ar    1  UNL1        0.0045
     22 C         137.3345  139.7033  160.2750 C.ar    1  UNL1        0.0519
     23 C         138.3531  140.2867  159.3411 C.ar    1  UNL1        0.1808
     24 C         139.8157  140.1405  159.6404 C.ar    1  UNL1        0.0535
     25 S         137.9091  141.0163  158.1079 S.O     1  UNL1        0.0581
     26 C         138.1158  142.4979  157.9978 C.3     1  UNL1        0.3254
     27 O         137.2585  140.2643  156.9849 O.co2   1  UNL1       -0.6774
@<TRIPOS>UNITY_ATOM_ATTR
17 1
charge 1
18 1
charge -1
25 1
charge 1
27 1
charge -1
@<TRIPOS>BOND
     1    16    17    1
     2    17    18    2
     3    17    10    1
     4    10    11   ar
     5    11    12   ar
     6    12    13   ar
     7    13     1    1
     8     1     2   ar
     9     2     3   ar
    10     3     4   ar
    11     4     5   ar
    12     5     6   ar
    13     6     7   ar
    14     7    19    1
    15    19    20   ar
    16    20    21   ar
    17    21    22   ar
    18    22    23   ar
    19    23    25    1
    20    25    26    1
    21    25    27    2
    22    23    24   ar
    23     7     8   ar
    24     8     9   ar
    25    13    14   ar
    26    14    15   ar
    27    15    10   ar
    28     9     1   ar
    29     8     4   ar
    30    24    19   ar
@<TRIPOS>MOLECULE
*****
 27 30 0 0 0
SMALL
GASTEIGER

@<TRIPOS>ATOM
      1 C         139.7844  142.9243  164.9887 C.ar    1  UNL1        0.1014
      2 C         138.8983  144.1228  164.8209 C.ar    1  UNL1        0.0240
      3 C         138.7314  144.7485  163.4678 C.ar    1  UNL1        0.0404
      4 C         139.4505  144.1755  162.2827 C.ar    1  UNL1        0.1639
      5 N         139.4799  144.5749  160.8371 N.ar    1  UNL1       -0.2234
      6 C         140.3842  143.6232  160.1116 C.ar    1  UNL1        0.1197
      7 C         140.9137  142.6356  161.1088 C.ar    1  UNL1        0.1037
      8 N         140.3367  142.9770  162.4506 N.ar    1  UNL1       -0.2107
      9 N         140.5036  142.3514  163.8036 N.ar    1  UNL1       -0.1638
     10 C         140.2854  141.0473  169.0479 C.ar    1  UNL1        0.1807
     11 C         139.7940  140.2223  167.8956 C.ar    1  UNL1        0.0520
     12 C         139.6270  140.8480  166.5425 C.ar    1  UNL1        0.0060
     13 C         139.9514  142.2986  166.3418 C.ar    1  UNL1        0.0196
     14 C         140.4429  143.1237  167.4941 C.ar    1  UNL1        0.0060
     15 C         140.6099  142.4981  168.8471 C.ar    1  UNL1        0.0520
     16 C         141.6997  140.6740  171.1950 C.3     1  UNL1        0.3254
     17 S         140.4525  140.4217  170.4009 S.O     1  UNL1        0.0581
     18 O         139.3722  139.5439  170.9598 O.co2   1  UNL1       -0.6774
     19 C         141.8550  141.5051  160.8156 C.ar    1  UNL1        0.0236
     20 C         143.0633  141.2923  161.6785 C.ar    1  UNL1        0.0018
     21 C         144.0046  140.1619  161.3854 C.ar    1  UNL1        0.0045
     22 C         143.7376  139.2441  160.2294 C.ar    1  UNL1        0.0519
     23 C         142.5293  139.4569  159.3665 C.ar    1  UNL1        0.1808
     24 C         141.5880  140.5874  159.6596 C.ar    1  UNL1        0.0535
     25 S         142.2622  138.5391  158.2104 S.O     1  UNL1        0.0581
     26 C         140.8520  138.1737  157.8531 C.3     1  UNL1        0.3254
     27 O         143.4054  137.9869  157.4115 O.co2   1  UNL1       -0.6774
@<TRIPOS>UNITY_ATOM_ATTR
17 1
charge 1
18 1
charge -1
25 1
charge 1
27 1
charge -1
@<TRIPOS>BOND
     1    16    17    1
     2    17    18    2
     3    17    10    1
     4    10    11   ar
     5    11    12   ar
     6    12    13   ar
     7    13     1    1
     8     1     2   ar
     9     2     3   ar
    10     3     4   ar
    11     4     5   ar
    12     5     6   ar
    13     6     7   ar
    14     7    19    1
    15    19    20   ar
    16    20    21   ar
    17    21    22   ar
    18    22    23   ar
    19    23    25    1
    20    25    26    1
    21    25    27    2
    22    23    24   ar
    23     7     8   ar
    24     8     9   ar
    25    13    14   ar
    26    14    15   ar
    27    15    10   ar
    28     9     1   ar
    29     8     4   ar
    30    24    19   ar
@<TRIPOS>MOLECULE
*****
 27 30 0 0 0
SMALL
GASTEIGER

@<TRIPOS>ATOM
      1 C         139.9289  143.0217  164.9344 C.ar    1  UNL1        0.1014
      2 C         139.0089  144.2064  164.9465 C.ar    1  UNL1        0.0240
      3 C         138.7895  144.9983  163.6916 C.ar    1  UNL1        0.0404
      4 C         139.4901  144.6056  162.4247 C.ar    1  UNL1        0.1639
      5 N         139.4700  145.1909  161.0438 N.ar    1  UNL1       -0.2234
      6 C         140.3775  144.3679  160.1783 C.ar    1  UNL1        0.1197
      7 C         140.9585  143.2740  161.0244 C.ar    1  UNL1        0.1037
      8 N         140.4100  143.4209  162.4127 N.ar    1  UNL1       -0.2107
      9 N         140.6294  142.6290  163.6676 N.ar    1  UNL1       -0.1638
     10 C         140.5872  140.6458  168.6991 C.ar    1  UNL1        0.1807
     11 C         140.2978  139.9398  167.4076 C.ar    1  UNL1        0.0520
     12 C         140.0784  140.7318  166.1527 C.ar    1  UNL1        0.0060
     13 C         140.1483  142.2297  166.1893 C.ar    1  UNL1        0.0196
     14 C         140.4376  142.9357  167.4808 C.ar    1  UNL1        0.0060
     15 C         140.6571  142.1438  168.7356 C.ar    1  UNL1        0.0520
     16 C         142.1214  139.1716  170.1898 C.3     1  UNL1        0.3254
     17 S         140.8066  139.8539  169.9539 S.O     1  UNL1        0.0581
     18 O         139.7112  139.7444  170.9728 O.co2   1  UNL1       -0.6774
     19 C         141.9193  142.2185  160.5630 C.ar    1  UNL1        0.0236
     20 C         142.9226  142.5335  159.4934 C.ar    1  UNL1        0.0018
     21 C         143.8834  141.4780  159.0321 C.ar    1  UNL1        0.0045
     22 C         143.8409  140.1075  159.6404 C.ar    1  UNL1        0.0519
     23 C         142.8376  139.7926  160.7100 C.ar    1  UNL1        0.1808
     24 C         141.8768  140.8481  161.1713 C.ar    1  UNL1        0.0535
     25 S         142.7950  138.4221  161.3183 S.O     1  UNL1        0.0581
     26 C         141.4919  137.8544  161.7976 C.3     1  UNL1        0.3254
     27 O         144.0555  137.6193  161.4473 O.co2   1  UNL1       -0.6774
@<TRIPOS>UNITY_ATOM_ATTR
17 1
charge 1
18 1
charge -1
25 1
charge 1
27 1
charge -1
@<TRIPOS>BOND
     1    16    17    1
     2    17    18    2
     3    17    10    1
     4    10    11   ar
     5    11    12   ar
     6    12    13   ar
     7    13     1    1
     8     1     2   ar
     9     2     3   ar
    10     3     4   ar
    11     4     5   ar
    12     5     6   ar
    13     6     7   ar
    14     7    19    1
    15    19    20   ar
    16    20    21   ar
    17    21    22   ar
    18    22    23   ar
    19    23    25    1
    20    25    26    1
    21    25    27    2
    22    23    24   ar
    23     7     8   ar
    24     8     9   ar
    25    13    14   ar
    26    14    15   ar
    27    15    10   ar
    28     9     1   ar
    29     8     4   ar
    30    24    19   ar
@<TRIPOS>MOLECULE
*****
 27 30 0 0 0
SMALL
GASTEIGER

@<TRIPOS>ATOM
      1 C         140.3220  138.9207  164.6804 C.ar    1  UNL1        0.1014
      2 C         139.1862  137.9559  164.5102 C.ar    1  UNL1        0.0240
      3 C         138.6967  137.6087  163.1355 C.ar    1  UNL1        0.0404
      4 C         139.3431  138.2263  161.9310 C.ar    1  UNL1        0.1639
      5 N         139.0782  138.0765  160.4622 N.ar    1  UNL1       -0.2234
      6 C         140.0504  138.9488  159.7246 C.ar    1  UNL1        0.1197
      7 C         140.9161  139.6376  160.7376 C.ar    1  UNL1        0.1037
      8 N         140.4790  139.1910  162.1012 N.ar    1  UNL1       -0.2107
      9 N         140.9684  139.5383  163.4759 N.ar    1  UNL1       -0.1638
     10 C         141.7906  139.9625  168.8046 C.ar    1  UNL1        0.1807
     11 C         140.3506  140.1784  168.4445 C.ar    1  UNL1        0.0520
     12 C         139.8611  139.8311  167.0697 C.ar    1  UNL1        0.0060
     13 C         140.8116  139.2680  166.0552 C.ar    1  UNL1        0.0196
     14 C         142.2516  139.0520  166.4153 C.ar    1  UNL1        0.0060
     15 C         142.7412  139.3993  167.7899 C.ar    1  UNL1        0.0520
     16 C         141.5225  141.2954  171.0184 C.3     1  UNL1        0.3254
     17 S         142.2802  140.3097  170.1792 S.O     1  UNL1        0.0581
     18 O         143.5274  139.6712  170.7147 O.co2   1  UNL1       -0.6774
     19 C         142.0244  140.6034  160.4393 C.ar    1  UNL1        0.0236
     20 C         142.2838  141.7559  161.3636 C.ar    1  UNL1        0.0018
     21 C         143.3921  142.7217  161.0654 C.ar    1  UNL1        0.0045
     22 C         144.2410  142.5350  159.8429 C.ar    1  UNL1        0.0519
     23 C         143.9815  141.3825  158.9186 C.ar    1  UNL1        0.1808
     24 C         142.8732  140.4167  159.2168 C.ar    1  UNL1        0.0535
     25 S         144.8304  141.1957  157.6960 S.O     1  UNL1        0.0581
     26 C         145.7174  142.3084  157.2217 C.3     1  UNL1        0.3254
     27 O         144.7921  139.8962  156.9477 O.co2   1  UNL1       -0.6774
@<TRIPOS>UNITY_ATOM_ATTR
17 1
charge 1
18 1
charge -1
25 1
charge 1
27 1
charge -1
@<TRIPOS>BOND
     1    16    17    1
     2    17    18    2
     3    17    10    1
     4    10    11   ar
     5    11    12   ar
     6    12    13   ar
     7    13     1    1
     8     1     2   ar
     9     2     3   ar
    10     3     4   ar
    11     4     5   ar
    12     5     6   ar
    13     6     7   ar
    14     7    19    1
    15    19    20   ar
    16    20    21   ar
    17    21    22   ar
    18    22    23   ar
    19    23    25    1
    20    25    26    1
    21    25    27    2
    22    23    24   ar
    23     7     8   ar
    24     8     9   ar
    25    13    14   ar
    26    14    15   ar
    27    15    10   ar
    28     9     1   ar
    29     8     4   ar
    30    24    19   ar
@<TRIPOS>MOLECULE
*****
 27 30 0 0 0
SMALL
GASTEIGER

@<TRIPOS>ATOM
      1 C         140.2515  142.8496  164.6323 C.ar    1  UNL1        0.1014
      2 C         139.1940  143.9108  164.5581 C.ar    1  UNL1        0.0240
      3 C         138.4122  144.1032  163.2925 C.ar    1  UNL1        0.0404
      4 C         138.6880  143.2345  162.1011 C.ar    1  UNL1        0.1639
      5 N         138.0833  143.1911  160.7290 N.ar    1  UNL1       -0.2234
      6 C         138.7672  142.1032  159.9553 C.ar    1  UNL1        0.1197
      7 C         139.7945  141.4742  160.8492 C.ar    1  UNL1        0.1037
      8 N         139.7456  142.1734  162.1754 N.ar    1  UNL1       -0.2107
      9 N         140.5273  141.9809  163.4410 N.ar    1  UNL1       -0.1638
     10 C         142.5969  142.2722  168.4292 C.ar    1  UNL1        0.1807
     11 C         143.2936  142.2192  167.1019 C.ar    1  UNL1        0.0520
     12 C         142.5118  142.4117  165.8363 C.ar    1  UNL1        0.0060
     13 C         141.0333  142.6571  165.8980 C.ar    1  UNL1        0.0196
     14 C         140.3366  142.7101  167.2253 C.ar    1  UNL1        0.0060
     15 C         141.1183  142.5177  168.4909 C.ar    1  UNL1        0.0520
     16 C         142.9497  141.0435  170.6910 C.3     1  UNL1        0.3254
     17 S         143.3786  142.0797  169.6948 S.O     1  UNL1        0.0581
     18 O         144.5892  142.9234  169.9643 O.co2   1  UNL1       -0.6774
     19 C         140.7100  140.3443  160.4815 C.ar    1  UNL1        0.0236
     20 C         140.8683  139.1753  161.4081 C.ar    1  UNL1        0.0018
     21 C         141.7838  138.0455  161.0404 C.ar    1  UNL1        0.0045
     22 C         142.5411  138.0845  159.7462 C.ar    1  UNL1        0.0519
     23 C         142.3828  139.2535  158.8197 C.ar    1  UNL1        0.1808
     24 C         141.4673  140.3833  159.1874 C.ar    1  UNL1        0.0535
     25 S         143.1402  139.2926  157.5254 S.O     1  UNL1        0.0581
     26 C         142.5613  138.6534  156.2981 C.3     1  UNL1        0.3254
     27 O         144.4764  139.9709  157.4585 O.co2   1  UNL1       -0.6774
@<TRIPOS>UNITY_ATOM_ATTR
17 1
charge 1
18 1
charge -1
25 1
charge 1
27 1
charge -1
@<TRIPOS>BOND
     1    16    17    1
     2    17    18    2
     3    17    10    1
     4    10    11   ar
     5    11    12   ar
     6    12    13   ar
     7    13     1    1
     8     1     2   ar
     9     2     3   ar
    10     3     4   ar
    11     4     5   ar
    12     5     6   ar
    13     6     7   ar
    14     7    19    1
    15    19    20   ar
    16    20    21   ar
    17    21    22   ar
    18    22    23   ar
    19    23    25    1
    20    25    26    1
    21    25    27    2
    22    23    24   ar
    23     7     8   ar
    24     8     9   ar
    25    13    14   ar
    26    14    15   ar
    27    15    10   ar
    28     9     1   ar
    29     8     4   ar
    30    24    19   ar
@<TRIPOS>MOLECULE
*****
 27 30 0 0 0
SMALL
GASTEIGER

@<TRIPOS>ATOM
      1 C         141.0714  143.7590  163.9739 C.ar    1  UNL1        0.1014
      2 C         141.0539  145.2454  163.7729 C.ar    1  UNL1        0.0240
      3 C         140.6862  145.8171  162.4358 C.ar    1  UNL1        0.0404
      4 C         140.3361  144.9025  161.2997 C.ar    1  UNL1        0.1639
      5 N         139.9365  145.1736  159.8795 N.ar    1  UNL1       -0.2234
      6 C         139.7071  143.8548  159.2027 C.ar    1  UNL1        0.1197
      7 C         139.9649  142.7686  160.2046 C.ar    1  UNL1        0.1037
      8 N         140.3536  143.4161  161.5006 N.ar    1  UNL1       -0.2107
      9 N         140.7213  142.8444  162.8377 N.ar    1  UNL1       -0.1638
     10 C         142.1745  142.0436  167.9853 C.ar    1  UNL1        0.1807
     11 C         140.7525  142.4247  167.6979 C.ar    1  UNL1        0.0520
     12 C         140.3848  142.9965  166.3608 C.ar    1  UNL1        0.0060
     13 C         141.4391  143.1872  165.3110 C.ar    1  UNL1        0.0196
     14 C         142.8611  142.8061  165.5984 C.ar    1  UNL1        0.0060
     15 C         143.2289  142.2343  166.9355 C.ar    1  UNL1        0.0520
     16 C         142.3766  142.2987  170.5628 C.3     1  UNL1        0.3254
     17 S         142.5422  141.4719  169.3223 S.O     1  UNL1        0.0581
     18 O         143.0755  140.0732  169.4190 O.co2   1  UNL1       -0.6774
     19 C         139.8535  141.2938  159.9545 C.ar    1  UNL1        0.0236
     20 C         139.6748  140.7817  158.5560 C.ar    1  UNL1        0.0018
     21 C         139.5634  139.3069  158.3059 C.ar    1  UNL1        0.0045
     22 C         139.6308  138.3442  159.4542 C.ar    1  UNL1        0.0519
     23 C         139.8095  138.8563  160.8527 C.ar    1  UNL1        0.1808
     24 C         139.9209  140.3311  161.1028 C.ar    1  UNL1        0.0535
     25 S         139.8769  137.8936  162.0011 S.O     1  UNL1        0.0581
     26 C         138.6797  137.6923  162.8822 C.3     1  UNL1        0.3254
     27 O         141.1414  137.1323  162.2683 O.co2   1  UNL1       -0.6774
@<TRIPOS>UNITY_ATOM_ATTR
17 1
charge 1
18 1
charge -1
25 1
charge 1
27 1
charge -1
@<TRIPOS>BOND
     1    16    17    1
     2    17    18    2
     3    17    10    1
     4    10    11   ar
     5    11    12   ar
     6    12    13   ar
     7    13     1    1
     8     1     2   ar
     9     2     3   ar
    10     3     4   ar
    11     4     5   ar
    12     5     6   ar
    13     6     7   ar
    14     7    19    1
    15    19    20   ar
    16    20    21   ar
    17    21    22   ar
    18    22    23   ar
    19    23    25    1
    20    25    26    1
    21    25    27    2
    22    23    24   ar
    23     7     8   ar
    24     8     9   ar
    25    13    14   ar
    26    14    15   ar
    27    15    10   ar
    28     9     1   ar
    29     8     4   ar
    30    24    19   ar
