@<TRIPOS>MOLECULE
*****
 32 34 0 0 0
SMALL
GASTEIGER

@<TRIPOS>ATOM
      1 C         142.7011  138.3825  163.6511 C.3     1  UNL1        0.1875
      2 C         141.4270  141.8759  165.0378 C.ar    1  UNL1        0.1313
      3 C         141.2005  141.5419  166.4825 C.ar    1  UNL1        0.0382
      4 C         141.4742  140.1547  166.9833 C.ar    1  UNL1        0.0754
      5 C         141.9744  139.1016  166.0396 C.ar    1  UNL1        0.0212
      6 C         142.2008  139.4357  164.5949 C.ar    1  UNL1        0.0901
      7 N         141.9271  140.8228  164.0940 N.ar    1  UNL1       -0.2325
      8 C         141.2477  139.8207  168.4281 C.3     1  UNL1        0.4187
      9 F         141.0212  139.4867  169.8728 F       1  UNL1       -0.1659
     10 F         139.9546  140.5803  168.4009 F       1  UNL1       -0.1659
     11 F         142.5408  139.0611  168.4552 F       1  UNL1       -0.1659
     12 N         141.1532  143.2631  164.5369 N.pl3   1  UNL1       -0.2933
     13 C         142.0515  145.4829  163.5292 C.3     1  UNL1        0.0232
     14 C         142.2915  144.2047  164.2766 C.3     1  UNL1        0.0922
     15 C         139.7413  143.7086  164.2964 C.3     1  UNL1        0.0922
     16 C         138.9828  144.4151  165.3806 C.3     1  UNL1        0.0232
     17 O         141.8265  137.9029  162.5308 O.3     1  UNL1       -0.3470
     18 C         140.3606  137.6862  162.7638 C.3     1  UNL1        0.1467
     19 C         139.3579  138.6184  162.1510 C.3     1  UNL1        0.0489
     20 C         140.1490  138.2486  160.9315 C.3     1  UNL1        0.0238
     21 C         139.7837  138.8270  159.5966 C.3     1  UNL1        0.0725
     22 N         138.6272  139.7753  159.4813 N.3     1  UNL1       -0.2715
     23 C         138.2618  140.3537  158.1464 C.3     1  UNL1        0.0896
     24 C         137.8360  140.1451  160.7008 C.3     1  UNL1        0.0725
     25 C         138.2014  139.5667  162.0357 C.3     1  UNL1        0.0238
     26 C         138.9150  138.6645  163.5834 C.ar    1  UNL1       -0.0202
     27 C         138.9129  137.4118  164.4085 C.ar    1  UNL1       -0.0019
     28 C         138.4700  137.4579  165.8409 C.ar    1  UNL1        0.0293
     29 C         138.0292  138.7566  166.4482 C.ar    1  UNL1        0.1401
     30 F         137.5862  138.8028  167.8805 F       1  UNL1       -0.2042
     31 C         138.0312  140.0094  165.6231 C.ar    1  UNL1        0.0293
     32 C         138.4742  139.9632  164.1908 C.ar    1  UNL1       -0.0019
@<TRIPOS>BOND
     1    13    14    1
     2    14    12    1
     3    12    15    1
     4    15    16    1
     5    12     2    1
     6     2     3   ar
     7     3     4   ar
     8     4     8    1
     9     8     9    1
    10     8    10    1
    11     8    11    1
    12     4     5   ar
    13     5     6   ar
    14     6     1    1
    15     1    17    1
    16    17    18    1
    17    18    19    1
    18    19    26    1
    19    26    27   ar
    20    27    28   ar
    21    28    29   ar
    22    29    30    1
    23    29    31   ar
    24    31    32   ar
    25    19    20    1
    26    20    21    1
    27    21    22    1
    28    22    23    1
    29    22    24    1
    30    24    25    1
    31     6     7   ar
    32     7     2   ar
    33    25    19    1
    34    32    26   ar
@<TRIPOS>MOLECULE
*****
 32 34 0 0 0
SMALL
GASTEIGER

@<TRIPOS>ATOM
      1 C         142.1936  138.0198  163.9108 C.3     1  UNL1        0.1875
      2 C         139.0850  140.4857  163.8316 C.ar    1  UNL1        0.1313
      3 C         138.1983  139.8572  164.8654 C.ar    1  UNL1        0.0382
      4 C         138.6433  138.6163  165.5811 C.ar    1  UNL1        0.0754
      5 C         139.9750  138.0039  165.2629 C.ar    1  UNL1        0.0212
      6 C         140.8617  138.6323  164.2291 C.ar    1  UNL1        0.0901
      7 N         140.4167  139.8732  163.5135 N.ar    1  UNL1       -0.2325
      8 C         137.7565  137.9879  166.6149 C.3     1  UNL1        0.4187
      9 F         136.8698  137.3596  167.6487 F       1  UNL1       -0.1659
     10 F         137.4875  139.3400  167.2060 F       1  UNL1       -0.1659
     11 F         138.0255  136.6358  166.0239 F       1  UNL1       -0.1659
     12 N         138.6399  141.7266  163.1160 N.pl3   1  UNL1       -0.2933
     13 C         138.1798  143.7725  164.6497 C.3     1  UNL1        0.0232
     14 C         139.0384  143.0759  163.6360 C.3     1  UNL1        0.0922
     15 C         137.7965  141.6181  161.8804 C.3     1  UNL1        0.0922
     16 C         137.6700  140.3021  161.1718 C.3     1  UNL1        0.0232
     17 O         143.4550  138.6821  164.3799 O.3     1  UNL1       -0.3470
     18 C         143.4301  139.5741  165.5857 C.3     1  UNL1        0.1467
     19 C         143.1463  141.0386  165.4295 C.3     1  UNL1        0.0489
     20 C         144.0743  140.8280  164.2701 C.3     1  UNL1        0.0238
     21 C         144.4304  141.9784  163.3759 C.3     1  UNL1        0.0725
     22 N         143.8585  143.3396  163.6412 N.3     1  UNL1       -0.2715
     23 C         144.2147  144.4900  162.7469 C.3     1  UNL1        0.0896
     24 C         142.9306  143.5502  164.8006 C.3     1  UNL1        0.0725
     25 C         142.5744  142.3998  165.6948 C.3     1  UNL1        0.0238
     26 C         142.3168  140.7406  166.6433 C.ar    1  UNL1       -0.0202
     27 C         140.9799  141.3980  166.8179 C.ar    1  UNL1       -0.0019
     28 C         140.1504  141.0999  168.0317 C.ar    1  UNL1        0.0293
     29 C         140.6579  140.1446  169.0708 C.ar    1  UNL1        0.1401
     30 F         139.8285  139.8466  170.2845 F       1  UNL1       -0.2042
     31 C         141.9949  139.4873  168.8962 C.ar    1  UNL1        0.0293
     32 C         142.8243  139.7853  167.6824 C.ar    1  UNL1       -0.0019
@<TRIPOS>BOND
     1    13    14    1
     2    14    12    1
     3    12    15    1
     4    15    16    1
     5    12     2    1
     6     2     3   ar
     7     3     4   ar
     8     4     8    1
     9     8     9    1
    10     8    10    1
    11     8    11    1
    12     4     5   ar
    13     5     6   ar
    14     6     1    1
    15     1    17    1
    16    17    18    1
    17    18    19    1
    18    19    26    1
    19    26    27   ar
    20    27    28   ar
    21    28    29   ar
    22    29    30    1
    23    29    31   ar
    24    31    32   ar
    25    19    20    1
    26    20    21    1
    27    21    22    1
    28    22    23    1
    29    22    24    1
    30    24    25    1
    31     6     7   ar
    32     7     2   ar
    33    25    19    1
    34    32    26   ar
@<TRIPOS>MOLECULE
*****
 32 34 0 0 0
SMALL
GASTEIGER

@<TRIPOS>ATOM
      1 C         143.3535  139.6082  165.0555 C.3     1  UNL1        0.1875
      2 C         140.9227  142.7369  165.2850 C.ar    1  UNL1        0.1313
      3 C         140.2358  142.4669  166.5908 C.ar    1  UNL1        0.0382
      4 C         140.5881  141.2441  167.3848 C.ar    1  UNL1        0.0754
      5 C         141.6273  140.2912  166.8731 C.ar    1  UNL1        0.0212
      6 C         142.3142  140.5611  165.5673 C.ar    1  UNL1        0.0901
      7 N         141.9619  141.7840  164.7732 N.ar    1  UNL1       -0.2325
      8 C         139.9010  140.9742  168.6907 C.3     1  UNL1        0.4187
      9 F         139.2141  140.7042  169.9965 F       1  UNL1       -0.1659
     10 F         139.8338  139.5141  168.3535 F       1  UNL1       -0.1659
     11 F         139.9682  142.4342  169.0279 F       1  UNL1       -0.1659
     12 N         140.5704  143.9597  164.4909 N.pl3   1  UNL1       -0.2933
     13 C         137.9990  144.1613  164.1788 C.3     1  UNL1        0.0232
     14 C         139.2822  144.6809  164.7562 C.3     1  UNL1        0.0922
     15 C         141.5063  144.4613  163.4314 C.3     1  UNL1        0.0922
     16 C         142.7419  145.2182  163.8194 C.3     1  UNL1        0.0232
     17 O         143.2307  139.0353  163.6747 O.3     1  UNL1       -0.3470
     18 C         142.1347  138.0600  163.3621 C.3     1  UNL1        0.1467
     19 C         141.2279  138.3007  162.1917 C.3     1  UNL1        0.0489
     20 C         142.5129  138.0172  161.4717 C.3     1  UNL1        0.0238
     21 C         142.5542  138.0439  159.9725 C.3     1  UNL1        0.0725
     22 N         141.3104  138.3539  159.1934 N.3     1  UNL1       -0.2715
     23 C         141.3517  138.3806  157.6942 C.3     1  UNL1        0.0896
     24 C         140.0255  138.6374  159.9134 C.3     1  UNL1        0.0725
     25 C         139.9842  138.6107  161.4126 C.3     1  UNL1        0.0238
     26 C         140.2578  138.5005  163.3183 C.ar    1  UNL1       -0.0202
     27 C         140.1090  137.4470  164.3756 C.ar    1  UNL1       -0.0019
     28 C         139.1389  137.6469  165.5022 C.ar    1  UNL1        0.0293
     29 C         138.3177  138.9002  165.5714 C.ar    1  UNL1        0.1401
     30 F         137.3477  139.1001  166.6978 F       1  UNL1       -0.2042
     31 C         138.4666  139.9537  164.5140 C.ar    1  UNL1        0.0293
     32 C         139.4367  139.7538  163.3875 C.ar    1  UNL1       -0.0019
@<TRIPOS>BOND
     1    13    14    1
     2    14    12    1
     3    12    15    1
     4    15    16    1
     5    12     2    1
     6     2     3   ar
     7     3     4   ar
     8     4     8    1
     9     8     9    1
    10     8    10    1
    11     8    11    1
    12     4     5   ar
    13     5     6   ar
    14     6     1    1
    15     1    17    1
    16    17    18    1
    17    18    19    1
    18    19    26    1
    19    26    27   ar
    20    27    28   ar
    21    28    29   ar
    22    29    30    1
    23    29    31   ar
    24    31    32   ar
    25    19    20    1
    26    20    21    1
    27    21    22    1
    28    22    23    1
    29    22    24    1
    30    24    25    1
    31     6     7   ar
    32     7     2   ar
    33    25    19    1
    34    32    26   ar
@<TRIPOS>MOLECULE
*****
 32 34 0 0 0
SMALL
GASTEIGER

@<TRIPOS>ATOM
      1 C         138.1213  142.4479  164.1820 C.3     1  UNL1        0.1875
      2 C         140.2470  139.1418  163.6329 C.ar    1  UNL1        0.1313
      3 C         139.6318  138.2357  164.6579 C.ar    1  UNL1        0.0382
      4 C         138.5131  138.7337  165.5242 C.ar    1  UNL1        0.0754
      5 C         138.0096  140.1377  165.3656 C.ar    1  UNL1        0.0212
      6 C         138.6248  141.0438  164.3406 C.ar    1  UNL1        0.0901
      7 N         139.7435  140.5458  163.4743 N.ar    1  UNL1       -0.2325
      8 C         137.8979  137.8276  166.5492 C.3     1  UNL1        0.4187
      9 F         137.2827  136.9215  167.5741 F       1  UNL1       -0.1659
     10 F         138.1574  136.6470  165.6612 F       1  UNL1       -0.1659
     11 F         137.6384  139.0083  167.4373 F       1  UNL1       -0.1659
     12 N         141.3656  138.6438  162.7665 N.pl3   1  UNL1       -0.2933
     13 C         143.6892  139.1762  163.7996 C.3     1  UNL1        0.0232
     14 C         142.6473  138.1776  163.3909 C.3     1  UNL1        0.0922
     15 C         141.2026  138.6120  161.2758 C.3     1  UNL1        0.0922
     16 C         142.2969  138.0564  160.4133 C.3     1  UNL1        0.0232
     17 O         138.8758  143.5891  164.7969 O.3     1  UNL1       -0.3470
     18 C         139.8550  143.3312  165.9037 C.3     1  UNL1        0.1467
     19 C         141.2879  143.0267  165.5815 C.3     1  UNL1        0.0489
     20 C         140.9828  144.0193  164.4991 C.3     1  UNL1        0.0238
     21 C         142.0438  144.3994  163.5092 C.3     1  UNL1        0.0725
     22 N         143.4099  143.7869  163.6018 N.3     1  UNL1       -0.2715
     23 C         144.4709  144.1670  162.6119 C.3     1  UNL1        0.0896
     24 C         143.7150  142.7943  164.6842 C.3     1  UNL1        0.0725
     25 C         142.6541  142.4142  165.6740 C.3     1  UNL1        0.0238
     26 C         141.0954  142.1399  166.7758 C.ar    1  UNL1       -0.0202
     27 C         141.5221  140.7029  166.7196 C.ar    1  UNL1       -0.0019
     28 C         141.3295  139.8161  167.9139 C.ar    1  UNL1        0.0293
     29 C         140.7103  140.3661  169.1645 C.ar    1  UNL1        0.1401
     30 F         140.5178  139.4794  170.3588 F       1  UNL1       -0.2042
     31 C         140.2836  141.8032  169.2208 C.ar    1  UNL1        0.0293
     32 C         140.4762  142.6899  168.0264 C.ar    1  UNL1       -0.0019
@<TRIPOS>BOND
     1    13    14    1
     2    14    12    1
     3    12    15    1
     4    15    16    1
     5    12     2    1
     6     2     3   ar
     7     3     4   ar
     8     4     8    1
     9     8     9    1
    10     8    10    1
    11     8    11    1
    12     4     5   ar
    13     5     6   ar
    14     6     1    1
    15     1    17    1
    16    17    18    1
    17    18    19    1
    18    19    26    1
    19    26    27   ar
    20    27    28   ar
    21    28    29   ar
    22    29    30    1
    23    29    31   ar
    24    31    32   ar
    25    19    20    1
    26    20    21    1
    27    21    22    1
    28    22    23    1
    29    22    24    1
    30    24    25    1
    31     6     7   ar
    32     7     2   ar
    33    25    19    1
    34    32    26   ar
@<TRIPOS>MOLECULE
*****
 32 34 0 0 0
SMALL
GASTEIGER

@<TRIPOS>ATOM
      1 C         139.3450  141.8755  163.1281 C.3     1  UNL1        0.1875
      2 C         140.3378  141.5266  166.9547 C.ar    1  UNL1        0.1313
      3 C         139.6190  140.2617  167.3198 C.ar    1  UNL1        0.0382
      4 C         138.8089  139.5347  166.2877 C.ar    1  UNL1        0.0754
      5 C         138.7176  140.0726  164.8905 C.ar    1  UNL1        0.0212
      6 C         139.4363  141.3375  164.5254 C.ar    1  UNL1        0.0901
      7 N         140.2464  142.0645  165.5574 N.ar    1  UNL1       -0.2325
      8 C         138.0901  138.2697  166.6529 C.3     1  UNL1        0.4187
      9 F         137.3714  137.0049  167.0181 F       1  UNL1       -0.1659
     10 F         137.5444  138.9346  167.8817 F       1  UNL1       -0.1659
     11 F         138.6358  137.6049  165.4240 F       1  UNL1       -0.1659
     12 N         141.1479  142.2536  167.9867 N.pl3   1  UNL1       -0.2933
     13 C         139.8184  142.4821  170.2072 C.3     1  UNL1        0.0232
     14 C         140.4638  143.1124  169.0088 C.3     1  UNL1        0.0922
     15 C         142.6420  142.1218  167.9968 C.3     1  UNL1        0.0922
     16 C         143.3917  142.1840  169.2946 C.3     1  UNL1        0.0232
     17 O         140.0926  141.2030  162.0151 O.3     1  UNL1       -0.3470
     18 C         141.5465  140.8728  162.1804 C.3     1  UNL1        0.1467
     19 C         142.0927  139.5917  161.6234 C.3     1  UNL1        0.0489
     20 C         141.6458  140.2573  160.3557 C.3     1  UNL1        0.0238
     21 C         141.8344  139.5652  159.0384 C.3     1  UNL1        0.0725
     22 N         142.4700  138.2073  158.9888 N.3     1  UNL1       -0.2715
     23 C         142.6586  137.5152  157.6715 C.3     1  UNL1        0.0896
     24 C         142.9169  137.5417  160.2566 C.3     1  UNL1        0.0725
     25 C         142.7283  138.2339  161.5739 C.3     1  UNL1        0.0238
     26 C         142.3500  139.3710  163.0847 C.ar    1  UNL1       -0.0202
     27 C         141.7545  138.1827  163.7799 C.ar    1  UNL1       -0.0019
     28 C         142.0117  137.9620  165.2411 C.ar    1  UNL1        0.0293
     29 C         142.8644  138.9296  166.0071 C.ar    1  UNL1        0.1401
     30 F         143.1217  138.7090  167.4683 F       1  UNL1       -0.2042
     31 C         143.4599  140.1180  165.3118 C.ar    1  UNL1        0.0293
     32 C         143.2026  140.3386  163.8506 C.ar    1  UNL1       -0.0019
@<TRIPOS>BOND
     1    13    14    1
     2    14    12    1
     3    12    15    1
     4    15    16    1
     5    12     2    1
     6     2     3   ar
     7     3     4   ar
     8     4     8    1
     9     8     9    1
    10     8    10    1
    11     8    11    1
    12     4     5   ar
    13     5     6   ar
    14     6     1    1
    15     1    17    1
    16    17    18    1
    17    18    19    1
    18    19    26    1
    19    26    27   ar
    20    27    28   ar
    21    28    29   ar
    22    29    30    1
    23    29    31   ar
    24    31    32   ar
    25    19    20    1
    26    20    21    1
    27    21    22    1
    28    22    23    1
    29    22    24    1
    30    24    25    1
    31     6     7   ar
    32     7     2   ar
    33    25    19    1
    34    32    26   ar
@<TRIPOS>MOLECULE
*****
 32 34 0 0 0
SMALL
GASTEIGER

@<TRIPOS>ATOM
      1 C         138.4656  139.1106  166.0451 C.3     1  UNL1        0.1875
      2 C         141.3288  140.7621  168.2416 C.ar    1  UNL1        0.1313
      3 C         142.5461  140.3849  167.4505 C.ar    1  UNL1        0.0382
      4 C         142.4033  139.5830  166.1909 C.ar    1  UNL1        0.0754
      5 C         141.0431  139.1582  165.7225 C.ar    1  UNL1        0.0212
      6 C         139.8258  139.5354  166.5136 C.ar    1  UNL1        0.0901
      7 N         139.9687  140.3373  167.7731 N.ar    1  UNL1       -0.2325
      8 C         143.6207  139.2058  165.3998 C.3     1  UNL1        0.4187
      9 F         144.8380  138.8286  164.6088 F       1  UNL1       -0.1659
     10 F         143.6049  137.8427  166.0256 F       1  UNL1       -0.1659
     11 F         143.6365  140.5689  164.7741 F       1  UNL1       -0.1659
     12 N         141.4717  141.5641  169.5011 N.pl3   1  UNL1       -0.2933
     13 C         143.8784  142.4552  169.9053 C.3     1  UNL1        0.0232
     14 C         142.7581  141.5275  170.2717 C.3     1  UNL1        0.0922
     15 C         140.3282  142.4026  169.9901 C.3     1  UNL1        0.0922
     16 C         140.3709  143.8938  169.8335 C.3     1  UNL1        0.0232
     17 O         138.1880  138.9692  164.5779 O.3     1  UNL1       -0.3470
     18 C         138.1009  140.1896  163.7100 C.3     1  UNL1        0.1467
     19 C         139.2722  140.5939  162.8647 C.3     1  UNL1        0.0489
     20 C         139.0519  139.2005  162.3551 C.3     1  UNL1        0.0238
     21 C         139.9381  138.6465  161.2791 C.3     1  UNL1        0.0725
     22 N         141.0447  139.4860  160.7128 N.3     1  UNL1       -0.2715
     23 C         141.9309  138.9320  159.6369 C.3     1  UNL1        0.0896
     24 C         141.2650  140.8794  161.2224 C.3     1  UNL1        0.0725
     25 C         140.3788  141.4334  162.2984 C.3     1  UNL1        0.0238
     26 C         139.0858  141.8470  163.6680 C.ar    1  UNL1       -0.0202
     27 C         137.7506  142.5302  163.6927 C.ar    1  UNL1       -0.0019
     28 C         137.5642  143.7833  164.4959 C.ar    1  UNL1        0.0293
     29 C         138.7128  144.3530  165.2743 C.ar    1  UNL1        0.1401
     30 F         138.5264  145.6060  166.0775 F       1  UNL1       -0.2042
     31 C         140.0480  143.6697  165.2496 C.ar    1  UNL1        0.0293
     32 C         140.2344  142.4167  164.4464 C.ar    1  UNL1       -0.0019
@<TRIPOS>BOND
     1    13    14    1
     2    14    12    1
     3    12    15    1
     4    15    16    1
     5    12     2    1
     6     2     3   ar
     7     3     4   ar
     8     4     8    1
     9     8     9    1
    10     8    10    1
    11     8    11    1
    12     4     5   ar
    13     5     6   ar
    14     6     1    1
    15     1    17    1
    16    17    18    1
    17    18    19    1
    18    19    26    1
    19    26    27   ar
    20    27    28   ar
    21    28    29   ar
    22    29    30    1
    23    29    31   ar
    24    31    32   ar
    25    19    20    1
    26    20    21    1
    27    21    22    1
    28    22    23    1
    29    22    24    1
    30    24    25    1
    31     6     7   ar
    32     7     2   ar
    33    25    19    1
    34    32    26   ar
@<TRIPOS>MOLECULE
*****
 32 34 0 0 0
SMALL
GASTEIGER

@<TRIPOS>ATOM
      1 C         142.7209  138.5248  163.7913 C.3     1  UNL1        0.1875
      2 C         141.8056  140.6234  167.0329 C.ar    1  UNL1        0.1313
      3 C         141.5099  141.9640  166.4286 C.ar    1  UNL1        0.0382
      4 C         141.6178  142.1582  164.9452 C.ar    1  UNL1        0.0754
      5 C         142.0215  141.0119  164.0660 C.ar    1  UNL1        0.0212
      6 C         142.3172  139.6713  164.6704 C.ar    1  UNL1        0.0901
      7 N         142.2093  139.4770  166.1538 N.ar    1  UNL1       -0.2325
      8 C         141.3221  143.4989  164.3408 C.3     1  UNL1        0.4187
      9 F         141.0263  144.8396  163.7365 F       1  UNL1       -0.1659
     10 F         139.8841  143.1063  164.1737 F       1  UNL1       -0.1659
     11 F         142.7601  143.8916  164.5080 F       1  UNL1       -0.1659
     12 N         141.6977  140.4291  168.5164 N.pl3   1  UNL1       -0.2933
     13 C         143.3892  142.0420  169.6510 C.3     1  UNL1        0.0232
     14 C         142.8964  140.6494  169.3908 C.3     1  UNL1        0.0922
     15 C         140.3911  140.0146  169.1254 C.3     1  UNL1        0.0922
     16 C         140.1446  140.2287  170.5895 C.3     1  UNL1        0.0232
     17 O         141.8765  138.1531  162.6086 O.3     1  UNL1       -0.3470
     18 C         140.4219  137.8373  162.7951 C.3     1  UNL1        0.1467
     19 C         139.3776  138.7275  162.1895 C.3     1  UNL1        0.0489
     20 C         140.1829  138.4014  160.9667 C.3     1  UNL1        0.0238
     21 C         139.7901  138.9714  159.6360 C.3     1  UNL1        0.0725
     22 N         138.5920  139.8675  159.5280 N.3     1  UNL1       -0.2715
     23 C         138.1993  140.4374  158.1973 C.3     1  UNL1        0.0896
     24 C         137.7867  140.1935  160.7507 C.3     1  UNL1        0.0725
     25 C         138.1795  139.6236  162.0815 C.3     1  UNL1        0.0238
     26 C         138.9350  138.7444  163.6226 C.ar    1  UNL1       -0.0202
     27 C         138.8684  137.4646  164.4021 C.ar    1  UNL1       -0.0019
     28 C         138.4258  137.4816  165.8353 C.ar    1  UNL1        0.0293
     29 C         138.0497  138.7782  166.4888 C.ar    1  UNL1        0.1401
     30 F         137.6071  138.7952  167.9219 F       1  UNL1       -0.2042
     31 C         138.1163  140.0581  165.7092 C.ar    1  UNL1        0.0293
     32 C         138.5589  140.0411  164.2761 C.ar    1  UNL1       -0.0019
@<TRIPOS>BOND
     1    13    14    1
     2    14    12    1
     3    12    15    1
     4    15    16    1
     5    12     2    1
     6     2     3   ar
     7     3     4   ar
     8     4     8    1
     9     8     9    1
    10     8    10    1
    11     8    11    1
    12     4     5   ar
    13     5     6   ar
    14     6     1    1
    15     1    17    1
    16    17    18    1
    17    18    19    1
    18    19    26    1
    19    26    27   ar
    20    27    28   ar
    21    28    29   ar
    22    29    30    1
    23    29    31   ar
    24    31    32   ar
    25    19    20    1
    26    20    21    1
    27    21    22    1
    28    22    23    1
    29    22    24    1
    30    24    25    1
    31     6     7   ar
    32     7     2   ar
    33    25    19    1
    34    32    26   ar
@<TRIPOS>MOLECULE
*****
 32 34 0 0 0
SMALL
GASTEIGER

@<TRIPOS>ATOM
      1 C         142.9223  142.0447  164.1214 C.3     1  UNL1        0.1875
      2 C         139.4469  142.1181  162.2066 C.ar    1  UNL1        0.1313
      3 C         138.6455  143.0100  163.1079 C.ar    1  UNL1        0.0382
      4 C         139.2696  143.5800  164.3470 C.ar    1  UNL1        0.0754
      5 C         140.6952  143.2583  164.6849 C.ar    1  UNL1        0.0212
      6 C         141.4966  142.3665  163.7836 C.ar    1  UNL1        0.0901
      7 N         140.8724  141.7964  162.5445 N.ar    1  UNL1       -0.2325
      8 C         138.4681  144.4719  165.2483 C.3     1  UNL1        0.4187
      9 F         137.6667  145.3637  166.1496 F       1  UNL1       -0.1659
     10 F         137.4546  144.6618  164.1590 F       1  UNL1       -0.1659
     11 F         139.4817  144.2820  166.3377 F       1  UNL1       -0.1659
     12 N         138.8227  141.5481  160.9675 N.pl3   1  UNL1       -0.2933
     13 C         139.6955  143.2480  159.2073 C.3     1  UNL1        0.0232
     14 C         138.5764  142.4287  159.7785 C.3     1  UNL1        0.0922
     15 C         138.4449  140.0973  160.9173 C.3     1  UNL1        0.0922
     16 C         139.3269  139.1169  160.2027 C.3     1  UNL1        0.0232
     17 O         143.2529  141.3840  165.4268 O.3     1  UNL1       -0.3470
     18 C         142.5110  140.1520  165.8531 C.3     1  UNL1        0.1467
     19 C         141.4950  140.2315  166.9537 C.3     1  UNL1        0.0489
     20 C         142.6409  140.9477  167.6047 C.3     1  UNL1        0.0238
     21 C         142.4954  141.4852  168.9976 C.3     1  UNL1        0.0725
     22 N         141.2040  141.3064  169.7394 N.3     1  UNL1       -0.2715
     23 C         141.0585  141.8438  171.1322 C.3     1  UNL1        0.0896
     24 C         140.0581  140.5902  169.0884 C.3     1  UNL1        0.0725
     25 C         140.2035  140.0527  167.6955 C.3     1  UNL1        0.0238
     26 C         140.7019  139.4877  165.9204 C.ar    1  UNL1       -0.0202
     27 C         141.3005  138.2996  165.2275 C.ar    1  UNL1       -0.0019
     28 C         140.5074  137.5557  164.1942 C.ar    1  UNL1        0.0293
     29 C         139.1158  137.9999  163.8538 C.ar    1  UNL1        0.1401
     30 F         138.3226  137.2561  162.8206 F       1  UNL1       -0.2042
     31 C         138.5171  139.1881  164.5468 C.ar    1  UNL1        0.0293
     32 C         139.3102  139.9318  165.5800 C.ar    1  UNL1       -0.0019
@<TRIPOS>BOND
     1    13    14    1
     2    14    12    1
     3    12    15    1
     4    15    16    1
     5    12     2    1
     6     2     3   ar
     7     3     4   ar
     8     4     8    1
     9     8     9    1
    10     8    10    1
    11     8    11    1
    12     4     5   ar
    13     5     6   ar
    14     6     1    1
    15     1    17    1
    16    17    18    1
    17    18    19    1
    18    19    26    1
    19    26    27   ar
    20    27    28   ar
    21    28    29   ar
    22    29    30    1
    23    29    31   ar
    24    31    32   ar
    25    19    20    1
    26    20    21    1
    27    21    22    1
    28    22    23    1
    29    22    24    1
    30    24    25    1
    31     6     7   ar
    32     7     2   ar
    33    25    19    1
    34    32    26   ar
@<TRIPOS>MOLECULE
*****
 32 34 0 0 0
SMALL
GASTEIGER

@<TRIPOS>ATOM
      1 C         143.5076  144.2125  163.8229 C.3     1  UNL1        0.1875
      2 C         140.3718  142.1483  165.1098 C.ar    1  UNL1        0.1313
      3 C         140.9090  141.5873  166.3930 C.ar    1  UNL1        0.0382
      4 C         142.3123  141.9013  166.8195 C.ar    1  UNL1        0.0754
      5 C         143.1785  142.7764  165.9629 C.ar    1  UNL1        0.0212
      6 C         142.6414  143.3374  164.6796 C.ar    1  UNL1        0.0901
      7 N         141.2380  143.0233  164.2531 N.ar    1  UNL1       -0.2325
      8 C         142.8495  141.3403  168.1028 C.3     1  UNL1        0.4187
      9 F         143.3866  140.7792  169.3860 F       1  UNL1       -0.1659
     10 F         141.9696  140.1358  167.9445 F       1  UNL1       -0.1659
     11 F         143.7293  142.5447  168.2612 F       1  UNL1       -0.1659
     12 N         138.9684  141.8342  164.6832 N.pl3   1  UNL1       -0.2933
     13 C         138.1361  139.5355  165.5624 C.3     1  UNL1        0.0232
     14 C         138.5636  140.4134  164.4237 C.3     1  UNL1        0.0922
     15 C         137.9699  142.9409  164.5162 C.3     1  UNL1        0.0922
     16 C         137.7569  143.5617  163.1673 C.3     1  UNL1        0.0232
     17 O         144.0611  143.6863  162.5319 O.3     1  UNL1       -0.3470
     18 C         144.6838  142.3224  162.4834 C.3     1  UNL1        0.1467
     19 C         144.2720  141.3474  161.4205 C.3     1  UNL1        0.0489
     20 C         144.6749  142.5113  160.5644 C.3     1  UNL1        0.0238
     21 C         144.5757  142.4136  159.0708 C.3     1  UNL1        0.0725
     22 N         144.0737  141.1519  158.4335 N.3     1  UNL1       -0.2715
     23 C         143.9746  141.0542  156.9399 C.3     1  UNL1        0.0896
     24 C         143.6709  139.9880  159.2896 C.3     1  UNL1        0.0725
     25 C         143.7700  140.0857  160.7831 C.3     1  UNL1        0.0238
     26 C         144.0122  140.5221  162.6458 C.ar    1  UNL1       -0.0202
     27 C         142.6511  139.9372  162.8813 C.ar    1  UNL1       -0.0019
     28 C         142.3913  139.1119  164.1067 C.ar    1  UNL1        0.0293
     29 C         143.4924  138.8715  165.0964 C.ar    1  UNL1        0.1401
     30 F         143.2326  138.0462  166.3217 F       1  UNL1       -0.2042
     31 C         144.8535  139.4564  164.8608 C.ar    1  UNL1        0.0293
     32 C         145.1133  140.2816  163.6355 C.ar    1  UNL1       -0.0019
@<TRIPOS>BOND
     1    13    14    1
     2    14    12    1
     3    12    15    1
     4    15    16    1
     5    12     2    1
     6     2     3   ar
     7     3     4   ar
     8     4     8    1
     9     8     9    1
    10     8    10    1
    11     8    11    1
    12     4     5   ar
    13     5     6   ar
    14     6     1    1
    15     1    17    1
    16    17    18    1
    17    18    19    1
    18    19    26    1
    19    26    27   ar
    20    27    28   ar
    21    28    29   ar
    22    29    30    1
    23    29    31   ar
    24    31    32   ar
    25    19    20    1
    26    20    21    1
    27    21    22    1
    28    22    23    1
    29    22    24    1
    30    24    25    1
    31     6     7   ar
    32     7     2   ar
    33    25    19    1
    34    32    26   ar
