@<TRIPOS>MOLECULE
*****
 32 35 0 0 0
SMALL
GASTEIGER

@<TRIPOS>ATOM
      1 C         139.9932  141.4035  160.2853 C.3     1  UNL1        0.1200
      2 C         139.0002  142.3881  159.7427 C.3     1  UNL1        0.2250
      3 O         138.2634  143.3020  160.6763 O.3     1  UNL1       -0.4739
      4 C         138.5197  143.2315  162.1526 C.ar    1  UNL1        0.1358
      5 C         137.7828  144.1455  163.0862 C.ar    1  UNL1        0.0367
      6 C         138.0391  144.0749  164.5625 C.ar    1  UNL1        0.0044
      7 C         139.0322  143.0903  165.1051 C.ar    1  UNL1        0.0144
      8 C         139.7689  142.1763  164.1715 C.ar    1  UNL1        0.0468
      9 C         139.5127  142.2469  162.6952 C.ar    1  UNL1        0.0268
     10 C         140.2495  141.3329  161.7616 C.3     1  UNL1        0.0541
     11 N         140.7620  141.1918  164.7141 N.pl3   1  UNL1       -0.3048
     12 C         140.3270  139.7965  165.0519 C.3     1  UNL1        0.1081
     13 C         141.3201  138.8120  165.5945 C.3     1  UNL1        0.0938
     14 N         142.7481  139.2226  165.7994 N.3     1  UNL1       -0.2686
     15 C         143.7412  138.2380  166.3420 C.3     1  UNL1        0.0897
     16 C         143.1831  140.6178  165.4616 C.3     1  UNL1        0.0938
     17 C         142.1901  141.6024  164.9189 C.3     1  UNL1        0.1081
     18 C         140.0312  139.3033  158.7563 C.2     1  UNL1        0.2459
     19 O         138.5954  139.0311  159.0946 O.2     1  UNL1       -0.2701
     20 N         140.7301  140.4894  159.3516 N.am    1  UNL1       -0.2986
     21 H         141.6724  140.6681  159.1296 H       1  UNL1        0.1498
     22 C         142.2417  136.5613  155.9555 C.ar    1  UNL1        0.1386
     23 C         140.7451  136.6446  155.8977 C.ar    1  UNL1        0.0370
     24 C         140.0083  137.5586  156.8313 C.ar    1  UNL1        0.0076
     25 C         140.7680  138.3892  157.8226 C.ar    1  UNL1        0.0536
     26 C         142.2646  138.3059  157.8804 C.ar    1  UNL1        0.0076
     27 C         143.0014  137.3919  156.9468 C.ar    1  UNL1        0.0370
     28 O         142.9786  135.6472  155.0218 O.3     1  UNL1       -0.4755
     29 C         143.0672  134.1804  155.3228 C.3     1  UNL1        0.2054
     30 C         142.8581  133.6885  156.7243 C.3     1  UNL1        0.0473
     31 C         144.8916  132.5190  157.8412 C.3     1  UNL1        0.0001
     32 C         143.9931  133.7123  157.7047 C.3     1  UNL1        0.0038
@<TRIPOS>BOND
     1    31    32    1
     2    32    30    1
     3    30    29    1
     4    29    28    1
     5    28    22    1
     6    22    23   ar
     7    23    24   ar
     8    24    25   ar
     9    25    18    1
    10    18    19    2
    11    18    20   am
    12     1    20    1
    13     1     2    1
    14     2     3    1
    15     3     4    1
    16     4     5   ar
    17     5     6   ar
    18     6     7   ar
    19     7     8   ar
    20     8    11    1
    21    11    12    1
    22    12    13    1
    23    13    14    1
    24    14    15    1
    25    14    16    1
    26    16    17    1
    27     8     9   ar
    28     9    10    1
    29    25    26   ar
    30    26    27   ar
    31    27    22   ar
    32    10     1    1
    33     9     4   ar
    34    17    11    1
    35    20    21    1
@<TRIPOS>MOLECULE
*****
 32 35 0 0 0
SMALL
GASTEIGER

@<TRIPOS>ATOM
      1 C         142.7274  139.2023  162.5335 C.3     1  UNL1        0.1200
      2 C         143.2725  137.9303  161.9548 C.3     1  UNL1        0.2250
      3 O         143.3156  137.7411  160.4674 O.3     1  UNL1       -0.4739
      4 C         142.8136  138.8239  159.5587 C.ar    1  UNL1        0.1358
      5 C         142.8567  138.6346  158.0713 C.ar    1  UNL1        0.0367
      6 C         142.3547  139.7173  157.1626 C.ar    1  UNL1        0.0044
      7 C         141.8096  140.9893  157.7414 C.ar    1  UNL1        0.0144
      8 C         141.7665  141.1786  159.2288 C.ar    1  UNL1        0.0468
      9 C         142.2685  140.0958  160.1374 C.ar    1  UNL1        0.0268
     10 C         142.2254  140.2850  161.6248 C.3     1  UNL1        0.0541
     11 N         141.2214  142.4505  159.8075 N.pl3   1  UNL1       -0.3048
     12 C         142.0331  143.7105  159.7467 C.3     1  UNL1        0.1081
     13 C         141.4879  144.9825  160.3255 C.3     1  UNL1        0.0938
     14 N         140.1311  144.9945  160.9649 N.3     1  UNL1       -0.2686
     15 C         139.5860  146.2665  161.5436 C.3     1  UNL1        0.0897
     16 C         139.3195  143.7346  161.0257 C.3     1  UNL1        0.0938
     17 C         139.8646  142.4626  160.4470 C.3     1  UNL1        0.1081
     18 C         141.3772  139.2999  164.7510 C.2     1  UNL1        0.2459
     19 O         140.1132  139.0190  163.9938 O.2     1  UNL1       -0.2701
     20 N         142.6842  139.3916  164.0209 N.am    1  UNL1       -0.2986
     21 H         143.5138  139.5760  164.5179 H       1  UNL1        0.1498
     22 C         141.2479  139.8677  169.2132 C.ar    1  UNL1        0.1386
     23 C         139.9909  139.9935  168.4044 C.ar    1  UNL1        0.0370
     24 C         140.0340  139.8042  166.9170 C.ar    1  UNL1        0.0076
     25 C         141.3340  139.4892  166.2385 C.ar    1  UNL1        0.0536
     26 C         142.5910  139.3634  167.0472 C.ar    1  UNL1        0.0076
     27 C         142.5480  139.5527  168.5346 C.ar    1  UNL1        0.0370
     28 O         141.2048  140.0570  170.7006 O.3     1  UNL1       -0.4755
     29 C         141.5918  141.3762  171.3003 C.3     1  UNL1        0.2054
     30 C         141.8748  142.5503  170.4107 C.3     1  UNL1        0.0473
     31 C         140.2975  143.4229  168.5397 C.3     1  UNL1        0.0001
     32 C         140.7539  143.4436  169.9684 C.3     1  UNL1        0.0038
@<TRIPOS>BOND
     1    31    32    1
     2    32    30    1
     3    30    29    1
     4    29    28    1
     5    28    22    1
     6    22    23   ar
     7    23    24   ar
     8    24    25   ar
     9    25    18    1
    10    18    19    2
    11    18    20   am
    12     1    20    1
    13     1     2    1
    14     2     3    1
    15     3     4    1
    16     4     5   ar
    17     5     6   ar
    18     6     7   ar
    19     7     8   ar
    20     8    11    1
    21    11    12    1
    22    12    13    1
    23    13    14    1
    24    14    15    1
    25    14    16    1
    26    16    17    1
    27     8     9   ar
    28     9    10    1
    29    25    26   ar
    30    26    27   ar
    31    27    22   ar
    32    10     1    1
    33     9     4   ar
    34    17    11    1
    35    20    21    1
@<TRIPOS>MOLECULE
*****
 32 35 0 0 0
SMALL
GASTEIGER

@<TRIPOS>ATOM
      1 C         140.0096  143.7244  162.1958 C.3     1  UNL1        0.1200
      2 C         139.5979  145.1659  162.1470 C.3     1  UNL1        0.2250
      3 O         139.6739  145.9242  160.8551 O.3     1  UNL1       -0.4739
      4 C         140.1615  145.2410  159.6119 C.ar    1  UNL1        0.1358
      5 C         140.2375  145.9994  158.3199 C.ar    1  UNL1        0.0367
      6 C         140.7252  145.3162  157.0768 C.ar    1  UNL1        0.0044
      7 C         141.1369  143.8746  157.1256 C.ar    1  UNL1        0.0144
      8 C         141.0609  143.1163  158.4176 C.ar    1  UNL1        0.0468
      9 C         140.5733  143.7995  159.6607 C.ar    1  UNL1        0.0268
     10 C         140.4973  143.0412  160.9526 C.3     1  UNL1        0.0541
     11 N         141.4727  141.6748  158.4663 N.pl3   1  UNL1       -0.3048
     12 C         142.8961  141.3111  158.7691 C.3     1  UNL1        0.1081
     13 C         143.3078  139.8695  158.8179 C.3     1  UNL1        0.0938
     14 N         142.2961  138.7916  158.5639 N.3     1  UNL1       -0.2686
     15 C         142.7078  137.3500  158.6127 C.3     1  UNL1        0.0897
     16 C         140.8727  139.1552  158.2611 C.3     1  UNL1        0.0938
     17 C         140.4610  140.5968  158.2123 C.3     1  UNL1        0.1081
     18 C         141.1930  142.5641  164.1967 C.2     1  UNL1        0.2459
     19 O         142.5283  142.9207  163.6137 O.2     1  UNL1       -0.2701
     20 N         139.9337  142.9660  163.4878 N.am    1  UNL1       -0.2986
     21 H         139.0573  142.7319  163.8704 H       1  UNL1        0.1498
     22 C         140.9651  140.2890  168.0724 C.ar    1  UNL1        0.1386
     23 C         142.2616  140.9081  167.6413 C.ar    1  UNL1        0.0370
     24 C         142.3376  141.6665  166.3494 C.ar    1  UNL1        0.0076
     25 C         141.1171  141.8057  165.4886 C.ar    1  UNL1        0.0536
     26 C         139.8206  141.1866  165.9198 C.ar    1  UNL1        0.0076
     27 C         139.7446  140.4282  167.2117 C.ar    1  UNL1        0.0370
     28 O         140.8892  139.5305  169.3644 O.3     1  UNL1       -0.4755
     29 C         140.2778  140.1709  170.5752 C.3     1  UNL1        0.2054
     30 C         140.7029  141.5481  170.9905 C.3     1  UNL1        0.0473
     31 C         140.3863  143.6038  169.4336 C.3     1  UNL1        0.0001
     32 C         139.9019  142.7417  170.5614 C.3     1  UNL1        0.0038
@<TRIPOS>BOND
     1    31    32    1
     2    32    30    1
     3    30    29    1
     4    29    28    1
     5    28    22    1
     6    22    23   ar
     7    23    24   ar
     8    24    25   ar
     9    25    18    1
    10    18    19    2
    11    18    20   am
    12     1    20    1
    13     1     2    1
    14     2     3    1
    15     3     4    1
    16     4     5   ar
    17     5     6   ar
    18     6     7   ar
    19     7     8   ar
    20     8    11    1
    21    11    12    1
    22    12    13    1
    23    13    14    1
    24    14    15    1
    25    14    16    1
    26    16    17    1
    27     8     9   ar
    28     9    10    1
    29    25    26   ar
    30    26    27   ar
    31    27    22   ar
    32    10     1    1
    33     9     4   ar
    34    17    11    1
    35    20    21    1
@<TRIPOS>MOLECULE
*****
 32 35 0 0 0
SMALL
GASTEIGER

@<TRIPOS>ATOM
      1 C         140.3707  144.2656  162.6939 C.3     1  UNL1        0.1200
      2 C         139.8596  145.6425  162.3895 C.3     1  UNL1        0.2250
      3 O         139.7759  146.1142  160.9681 O.3     1  UNL1       -0.4739
      4 C         140.2032  145.2088  159.8511 C.ar    1  UNL1        0.1358
      5 C         140.1195  145.6805  158.4296 C.ar    1  UNL1        0.0367
      6 C         140.5468  144.7752  157.3126 C.ar    1  UNL1        0.0044
      7 C         141.0579  143.3981  157.6170 C.ar    1  UNL1        0.0144
      8 C         141.1416  142.9265  159.0385 C.ar    1  UNL1        0.0468
      9 C         140.7143  143.8318  160.1555 C.ar    1  UNL1        0.0268
     10 C         140.7980  143.3602  161.5769 C.3     1  UNL1        0.0541
     11 N         141.6526  141.5495  159.3429 N.pl3   1  UNL1       -0.3048
     12 C         140.6947  140.3998  159.4462 C.3     1  UNL1        0.1081
     13 C         141.2059  139.0228  159.7506 C.3     1  UNL1        0.0938
     14 N         142.6748  138.7955  159.9517 N.3     1  UNL1       -0.2686
     15 C         143.1859  137.4184  160.2562 C.3     1  UNL1        0.0897
     16 C         143.6327  139.9451  159.8484 C.3     1  UNL1        0.0938
     17 C         143.1217  141.3221  159.5440 C.3     1  UNL1        0.1081
     18 C         139.7290  142.5505  164.5370 C.2     1  UNL1        0.2459
     19 O         138.9198  141.7788  163.5372 O.2     1  UNL1       -0.2701
     20 N         140.4544  143.7939  164.1154 N.am    1  UNL1       -0.2986
     21 H         140.9855  144.3003  164.7717 H       1  UNL1        0.1498
     22 C         139.9802  141.1356  168.8014 C.ar    1  UNL1        0.1386
     23 C         139.4477  140.2214  167.7380 C.ar    1  UNL1        0.0370
     24 C         139.3640  140.6930  166.3166 C.ar    1  UNL1        0.0076
     25 C         139.8127  142.0788  165.9585 C.ar    1  UNL1        0.0536
     26 C         140.3452  142.9930  167.0219 C.ar    1  UNL1        0.0076
     27 C         140.4289  142.5213  168.4434 C.ar    1  UNL1        0.0370
     28 O         140.0639  140.6639  170.2229 O.3     1  UNL1       -0.4755
     29 C         141.4027  140.4359  170.8598 C.3     1  UNL1        0.2054
     30 C         142.6143  140.2206  170.0022 C.3     1  UNL1        0.0473
     31 C         142.8919  139.2059  167.6266 C.3     1  UNL1        0.0001
     32 C         142.6929  139.0232  169.1020 C.3     1  UNL1        0.0038
@<TRIPOS>BOND
     1    31    32    1
     2    32    30    1
     3    30    29    1
     4    29    28    1
     5    28    22    1
     6    22    23   ar
     7    23    24   ar
     8    24    25   ar
     9    25    18    1
    10    18    19    2
    11    18    20   am
    12     1    20    1
    13     1     2    1
    14     2     3    1
    15     3     4    1
    16     4     5   ar
    17     5     6   ar
    18     6     7   ar
    19     7     8   ar
    20     8    11    1
    21    11    12    1
    22    12    13    1
    23    13    14    1
    24    14    15    1
    25    14    16    1
    26    16    17    1
    27     8     9   ar
    28     9    10    1
    29    25    26   ar
    30    26    27   ar
    31    27    22   ar
    32    10     1    1
    33     9     4   ar
    34    17    11    1
    35    20    21    1
@<TRIPOS>MOLECULE
*****
 32 35 0 0 0
SMALL
GASTEIGER

@<TRIPOS>ATOM
      1 C         143.1989  140.4573  158.9872 C.3     1  UNL1        0.1200
      2 C         143.9959  141.7152  159.1668 C.3     1  UNL1        0.2250
      3 O         144.9442  142.1619  158.0939 O.3     1  UNL1       -0.4739
      4 C         145.0955  141.3506  156.8414 C.ar    1  UNL1        0.1358
      5 C         146.0439  141.7973  155.7685 C.ar    1  UNL1        0.0367
      6 C         146.1952  140.9859  154.5159 C.ar    1  UNL1        0.0044
      7 C         145.3981  139.7280  154.3363 C.ar    1  UNL1        0.0144
      8 C         144.4498  139.2813  155.4092 C.ar    1  UNL1        0.0468
      9 C         144.2985  140.0926  156.6617 C.ar    1  UNL1        0.0268
     10 C         143.3502  139.6460  157.7346 C.3     1  UNL1        0.0541
     11 N         143.6528  138.0234  155.2295 N.pl3   1  UNL1       -0.3048
     12 C         142.2394  138.0956  154.7324 C.3     1  UNL1        0.1081
     13 C         141.4424  136.8376  154.5527 C.3     1  UNL1        0.0938
     14 N         142.0587  135.5075  154.8702 N.3     1  UNL1       -0.2686
     15 C         141.2617  134.2494  154.6906 C.3     1  UNL1        0.0897
     16 C         143.4721  135.4353  155.3673 C.3     1  UNL1        0.0938
     17 C         144.2691  136.6932  155.5470 C.3     1  UNL1        0.1081
     18 C         142.6469  138.9126  161.0019 C.2     1  UNL1        0.2459
     19 O         143.9917  138.2611  160.8709 O.2     1  UNL1       -0.2701
     20 N         142.2505  140.0106  160.0601 N.am    1  UNL1       -0.2986
     21 H         141.3678  140.4382  160.1461 H       1  UNL1        0.1498
     22 C         139.8017  137.5726  164.2205 C.ar    1  UNL1        0.1386
     23 C         141.2498  137.7932  164.5438 C.ar    1  UNL1        0.0370
     24 C         142.1982  138.2399  163.4710 C.ar    1  UNL1        0.0076
     25 C         141.6985  138.4659  162.0749 C.ar    1  UNL1        0.0536
     26 C         140.2505  138.2452  161.7516 C.ar    1  UNL1        0.0076
     27 C         139.3021  137.7986  162.8244 C.ar    1  UNL1        0.0370
     28 O         138.8534  137.1259  165.2935 O.3     1  UNL1       -0.4755
     29 C         138.1968  138.1391  166.1835 C.3     1  UNL1        0.2054
     30 C         138.2087  139.5903  165.8041 C.3     1  UNL1        0.0473
     31 C         140.1957  140.0044  167.4261 C.3     1  UNL1        0.0001
     32 C         139.2507  140.5061  166.3749 C.3     1  UNL1        0.0038
@<TRIPOS>BOND
     1    31    32    1
     2    32    30    1
     3    30    29    1
     4    29    28    1
     5    28    22    1
     6    22    23   ar
     7    23    24   ar
     8    24    25   ar
     9    25    18    1
    10    18    19    2
    11    18    20   am
    12     1    20    1
    13     1     2    1
    14     2     3    1
    15     3     4    1
    16     4     5   ar
    17     5     6   ar
    18     6     7   ar
    19     7     8   ar
    20     8    11    1
    21    11    12    1
    22    12    13    1
    23    13    14    1
    24    14    15    1
    25    14    16    1
    26    16    17    1
    27     8     9   ar
    28     9    10    1
    29    25    26   ar
    30    26    27   ar
    31    27    22   ar
    32    10     1    1
    33     9     4   ar
    34    17    11    1
    35    20    21    1
@<TRIPOS>MOLECULE
*****
 32 35 0 0 0
SMALL
GASTEIGER

@<TRIPOS>ATOM
      1 C         141.9721  139.3434  163.6953 C.3     1  UNL1        0.1200
      2 C         142.2779  138.3304  164.7585 C.3     1  UNL1        0.2250
      3 O         142.0895  138.6810  166.2047 O.3     1  UNL1       -0.4739
      4 C         141.5953  140.0444  166.5877 C.ar    1  UNL1        0.1358
      5 C         141.4069  140.3949  168.0340 C.ar    1  UNL1        0.0367
      6 C         140.9126  141.7584  168.4171 C.ar    1  UNL1        0.0044
      7 C         140.6068  142.7714  167.3538 C.ar    1  UNL1        0.0144
      8 C         140.7952  142.4208  165.9076 C.ar    1  UNL1        0.0468
      9 C         141.2895  141.0574  165.5246 C.ar    1  UNL1        0.0268
     10 C         141.4779  140.7068  164.0783 C.3     1  UNL1        0.0541
     11 N         140.4894  143.4338  164.8444 N.pl3   1  UNL1       -0.3048
     12 C         139.0775  143.6268  164.3763 C.3     1  UNL1        0.1081
     13 C         138.7717  144.6398  163.3130 C.3     1  UNL1        0.0938
     14 N         139.8779  145.4597  162.7180 N.3     1  UNL1       -0.2686
     15 C         139.5721  146.4727  161.6547 C.3     1  UNL1        0.0897
     16 C         141.2898  145.2667  163.1861 C.3     1  UNL1        0.0938
     17 C         141.5956  144.2538  164.2493 C.3     1  UNL1        0.1081
     18 C         140.9666  138.7416  161.3765 C.2     1  UNL1        0.2459
     19 O         139.5842  138.8409  161.9502 O.2     1  UNL1       -0.2701
     20 N         142.1605  138.9929  162.2490 N.am    1  UNL1       -0.2986
     21 H         143.0678  138.9277  161.8724 H       1  UNL1        0.1498
     22 C         141.5317  137.6902  157.0377 C.ar    1  UNL1        0.1386
     23 C         142.6979  137.6398  157.9797 C.ar    1  UNL1        0.0370
     24 C         142.5096  137.9903  159.4259 C.ar    1  UNL1        0.0076
     25 C         141.1550  138.3911  159.9302 C.ar    1  UNL1        0.0536
     26 C         139.9887  138.4415  158.9882 C.ar    1  UNL1        0.0076
     27 C         140.1771  138.0910  157.5420 C.ar    1  UNL1        0.0370
     28 O         141.7201  137.3397  155.5914 O.3     1  UNL1       -0.4755
     29 C         141.1548  136.0601  155.0500 C.3     1  UNL1        0.2054
     30 C         142.0418  134.8634  154.8745 C.3     1  UNL1        0.0473
     31 C         143.7312  134.3123  156.7698 C.3     1  UNL1        0.0001
     32 C         143.4418  134.8820  155.4128 C.3     1  UNL1        0.0038
@<TRIPOS>BOND
     1    31    32    1
     2    32    30    1
     3    30    29    1
     4    29    28    1
     5    28    22    1
     6    22    23   ar
     7    23    24   ar
     8    24    25   ar
     9    25    18    1
    10    18    19    2
    11    18    20   am
    12     1    20    1
    13     1     2    1
    14     2     3    1
    15     3     4    1
    16     4     5   ar
    17     5     6   ar
    18     6     7   ar
    19     7     8   ar
    20     8    11    1
    21    11    12    1
    22    12    13    1
    23    13    14    1
    24    14    15    1
    25    14    16    1
    26    16    17    1
    27     8     9   ar
    28     9    10    1
    29    25    26   ar
    30    26    27   ar
    31    27    22   ar
    32    10     1    1
    33     9     4   ar
    34    17    11    1
    35    20    21    1
@<TRIPOS>MOLECULE
*****
 32 35 0 0 0
SMALL
GASTEIGER

@<TRIPOS>ATOM
      1 C         143.2273  139.2372  164.8467 C.3     1  UNL1        0.1200
      2 C         144.0233  138.4016  165.8048 C.3     1  UNL1        0.2250
      3 O         143.6956  138.4214  167.2684 O.3     1  UNL1       -0.4739
      4 C         142.5718  139.2768  167.7738 C.ar    1  UNL1        0.1358
      5 C         142.2441  139.2966  169.2375 C.ar    1  UNL1        0.0367
      6 C         141.1203  140.1521  169.7429 C.ar    1  UNL1        0.0044
      7 C         140.3243  140.9877  168.7847 C.ar    1  UNL1        0.0144
      8 C         140.6521  140.9678  167.3211 C.ar    1  UNL1        0.0468
      9 C         141.7758  140.1124  166.8157 C.ar    1  UNL1        0.0268
     10 C         142.1036  140.0926  165.3521 C.3     1  UNL1        0.0541
     11 N         139.8561  141.8034  166.3629 N.pl3   1  UNL1       -0.3048
     12 C         138.8100  141.1631  165.4994 C.3     1  UNL1        0.1081
     13 C         138.0140  141.9987  164.5412 C.3     1  UNL1        0.0938
     14 N         138.2641  143.4747  164.4465 N.3     1  UNL1       -0.2686
     15 C         137.4681  144.3104  163.4883 C.3     1  UNL1        0.0897
     16 C         139.3101  144.1150  165.3101 C.3     1  UNL1        0.0938
     17 C         140.1061  143.2795  166.2683 C.3     1  UNL1        0.1081
     18 C         142.4749  138.9542  162.3761 C.2     1  UNL1        0.2459
     19 O         141.0670  138.7108  162.8327 O.2     1  UNL1       -0.2701
     20 N         143.5551  139.2174  163.3830 N.am    1  UNL1       -0.2986
     21 H         144.4791  139.3771  163.0833 H       1  UNL1        0.1498
     22 C         143.4581  138.8949  157.9852 C.ar    1  UNL1        0.1386
     23 C         142.7165  137.7468  158.6033 C.ar    1  UNL1        0.0370
     24 C         142.3888  137.7666  160.0669 C.ar    1  UNL1        0.0076
     25 C         142.8027  138.9344  160.9124 C.ar    1  UNL1        0.0536
     26 C         143.5443  140.0824  160.2943 C.ar    1  UNL1        0.0076
     27 C         143.8720  140.0627  158.8307 C.ar    1  UNL1        0.0370
     28 O         143.7859  138.8751  156.5215 O.3     1  UNL1       -0.4755
     29 C         143.2976  137.7494  155.6588 C.3     1  UNL1        0.2054
     30 C         144.1599  136.5411  155.4434 C.3     1  UNL1        0.0473
     31 C         142.3492  134.8052  156.1202 C.3     1  UNL1        0.0001
     32 C         143.7865  135.2315  156.0723 C.3     1  UNL1        0.0038
@<TRIPOS>BOND
     1    31    32    1
     2    32    30    1
     3    30    29    1
     4    29    28    1
     5    28    22    1
     6    22    23   ar
     7    23    24   ar
     8    24    25   ar
     9    25    18    1
    10    18    19    2
    11    18    20   am
    12     1    20    1
    13     1     2    1
    14     2     3    1
    15     3     4    1
    16     4     5   ar
    17     5     6   ar
    18     6     7   ar
    19     7     8   ar
    20     8    11    1
    21    11    12    1
    22    12    13    1
    23    13    14    1
    24    14    15    1
    25    14    16    1
    26    16    17    1
    27     8     9   ar
    28     9    10    1
    29    25    26   ar
    30    26    27   ar
    31    27    22   ar
    32    10     1    1
    33     9     4   ar
    34    17    11    1
    35    20    21    1
@<TRIPOS>MOLECULE
*****
 32 35 0 0 0
SMALL
GASTEIGER

@<TRIPOS>ATOM
      1 C         142.6244  137.6179  158.1171 C.3     1  UNL1        0.1200
      2 C         142.1693  138.8303  157.3603 C.3     1  UNL1        0.2250
      3 O         141.8631  138.7289  155.8955 O.3     1  UNL1       -0.4739
      4 C         142.0119  137.4149  155.1874 C.ar    1  UNL1        0.1358
      5 C         141.7057  137.3135  153.7224 C.ar    1  UNL1        0.0367
      6 C         141.8545  135.9995  153.0143 C.ar    1  UNL1        0.0044
      7 C         142.3096  134.7870  153.7712 C.ar    1  UNL1        0.0144
      8 C         142.6159  134.8885  155.2361 C.ar    1  UNL1        0.0468
      9 C         142.4670  136.2024  155.9441 C.ar    1  UNL1        0.0268
     10 C         142.7733  136.3039  157.4090 C.3     1  UNL1        0.0541
     11 N         143.0710  133.6760  155.9928 N.pl3   1  UNL1       -0.3048
     12 C         144.3382  133.7239  156.7940 C.3     1  UNL1        0.1081
     13 C         144.7933  132.5113  157.5508 C.3     1  UNL1        0.0938
     14 N         143.9811  131.2510  157.5064 N.3     1  UNL1       -0.2686
     15 C         144.4362  130.0384  158.2632 C.3     1  UNL1        0.0897
     16 C         142.7139  131.2032  156.7052 C.3     1  UNL1        0.0938
     17 C         142.2588  132.4156  155.9485 C.3     1  UNL1        0.1081
     18 C         141.8422  138.0678  160.5534 C.2     1  UNL1        0.2459
     19 O         140.4474  138.3149  160.0600 O.2     1  UNL1       -0.2701
     20 N         142.9307  137.7193  159.5820 N.am    1  UNL1       -0.2986
     21 H         143.8461  137.5571  159.9059 H       1  UNL1        0.1498
     22 C         142.7610  138.3722  164.9481 C.ar    1  UNL1        0.1386
     23 C         141.5298  137.6496  164.4876 C.ar    1  UNL1        0.0370
     24 C         141.2235  137.5481  163.0227 C.ar    1  UNL1        0.0076
     25 C         142.1484  138.1692  162.0184 C.ar    1  UNL1        0.0536
     26 C         143.3796  138.8919  162.4789 C.ar    1  UNL1        0.0076
     27 C         143.6859  138.9933  163.9438 C.ar    1  UNL1        0.0370
     28 O         143.0673  138.4736  166.4130 O.3     1  UNL1       -0.4755
     29 C         142.7249  139.7249  167.1660 C.3     1  UNL1        0.2054
     30 C         141.7596  139.6697  168.3128 C.3     1  UNL1        0.0473
     31 C         139.5512  139.7608  166.9473 C.3     1  UNL1        0.0001
     32 C         140.3593  140.1790  168.1397 C.3     1  UNL1        0.0038
@<TRIPOS>BOND
     1    31    32    1
     2    32    30    1
     3    30    29    1
     4    29    28    1
     5    28    22    1
     6    22    23   ar
     7    23    24   ar
     8    24    25   ar
     9    25    18    1
    10    18    19    2
    11    18    20   am
    12     1    20    1
    13     1     2    1
    14     2     3    1
    15     3     4    1
    16     4     5   ar
    17     5     6   ar
    18     6     7   ar
    19     7     8   ar
    20     8    11    1
    21    11    12    1
    22    12    13    1
    23    13    14    1
    24    14    15    1
    25    14    16    1
    26    16    17    1
    27     8     9   ar
    28     9    10    1
    29    25    26   ar
    30    26    27   ar
    31    27    22   ar
    32    10     1    1
    33     9     4   ar
    34    17    11    1
    35    20    21    1
@<TRIPOS>MOLECULE
*****
 32 35 0 0 0
SMALL
GASTEIGER

@<TRIPOS>ATOM
      1 C         140.3267  137.4940  156.4329 C.3     1  UNL1        0.1200
      2 C         139.8822  138.2380  155.2087 C.3     1  UNL1        0.2250
      3 O         139.2430  139.5883  155.3425 O.3     1  UNL1       -0.4739
      4 C         139.0482  140.1946  156.7006 C.ar    1  UNL1        0.1358
      5 C         138.4089  141.5450  156.8345 C.ar    1  UNL1        0.0367
      6 C         138.2141  142.1513  158.1926 C.ar    1  UNL1        0.0044
      7 C         138.6586  141.4072  159.4169 C.ar    1  UNL1        0.0144
      8 C         139.2979  140.0569  159.2830 C.ar    1  UNL1        0.0468
      9 C         139.4927  139.4506  157.9249 C.ar    1  UNL1        0.0268
     10 C         140.1320  138.1003  157.7910 C.3     1  UNL1        0.0541
     11 N         139.7424  139.3129  160.5072 N.pl3   1  UNL1       -0.3048
     12 C         141.1618  139.4252  160.9791 C.3     1  UNL1        0.1081
     13 C         141.6063  138.6811  162.2034 C.3     1  UNL1        0.0938
     14 N         140.6313  137.8248  162.9558 N.3     1  UNL1       -0.2686
     15 C         141.0758  137.0807  164.1801 C.3     1  UNL1        0.0897
     16 C         139.2119  137.7125  162.4840 C.3     1  UNL1        0.0938
     17 C         138.7674  138.4565  161.2597 C.3     1  UNL1        0.1081
     18 C         142.4440  135.9899  156.5037 C.2     1  UNL1        0.2459
     19 O         143.2828  137.1866  156.8421 O.2     1  UNL1       -0.2701
     20 N         140.9661  136.1436  156.2991 N.am    1  UNL1       -0.2986
     21 H         140.4156  135.3582  156.0770 H       1  UNL1        0.1498
     22 C         144.3620  131.9390  156.1023 C.ar    1  UNL1        0.1386
     23 C         143.5404  132.4947  154.9770 C.ar    1  UNL1        0.0370
     24 C         142.9011  133.8449  155.1108 C.ar    1  UNL1        0.0076
     25 C         143.0834  134.6396  156.3699 C.ar    1  UNL1        0.0536
     26 C         143.9049  134.0839  157.4952 C.ar    1  UNL1        0.0076
     27 C         144.5442  132.7336  157.3614 C.ar    1  UNL1        0.0370
     28 O         145.0013  130.5886  155.9685 O.3     1  UNL1       -0.4755
     29 C         144.1876  129.3482  156.1908 C.3     1  UNL1        0.2054
     30 C         143.2511  129.2651  157.3595 C.3     1  UNL1        0.0473
     31 C         143.3710  128.2027  159.7274 C.3     1  UNL1        0.0001
     32 C         143.7945  129.2658  158.7576 C.3     1  UNL1        0.0038
@<TRIPOS>BOND
     1    31    32    1
     2    32    30    1
     3    30    29    1
     4    29    28    1
     5    28    22    1
     6    22    23   ar
     7    23    24   ar
     8    24    25   ar
     9    25    18    1
    10    18    19    2
    11    18    20   am
    12     1    20    1
    13     1     2    1
    14     2     3    1
    15     3     4    1
    16     4     5   ar
    17     5     6   ar
    18     6     7   ar
    19     7     8   ar
    20     8    11    1
    21    11    12    1
    22    12    13    1
    23    13    14    1
    24    14    15    1
    25    14    16    1
    26    16    17    1
    27     8     9   ar
    28     9    10    1
    29    25    26   ar
    30    26    27   ar
    31    27    22   ar
    32    10     1    1
    33     9     4   ar
    34    17    11    1
    35    20    21    1
