@<TRIPOS>MOLECULE
*****
 31 34 0 0 0
SMALL
GASTEIGER

@<TRIPOS>ATOM
      1 N         138.8509  139.3844  167.2406 N.pl3   1  UNL1       -0.2824
      2 H         138.2250  138.9935  167.8923 H       1  UNL1        0.1551
      3 C         138.0656  140.6966  162.1333 C.ar    1  UNL1        0.1522
      4 N         138.0301  139.8101  160.9238 N.ar    1  UNL1       -0.2190
      5 C         138.2625  138.3990  161.3765 C.ar    1  UNL1        0.1829
      6 N         138.4416  138.4135  162.8657 N.ar    1  UNL1       -0.2862
      7 C         138.6997  137.3171  163.8563 C.ar    1  UNL1        0.0828
      8 C         138.8362  137.6408  165.3146 C.ar    1  UNL1        0.0338
      9 C         138.7145  139.0608  165.7823 C.ar    1  UNL1        0.0535
     10 C         138.4563  140.1571  164.7917 C.ar    1  UNL1        0.0340
     11 C         138.3199  139.8335  163.3334 C.ar    1  UNL1        0.0888
     12 C         137.6641  144.4187  163.4506 C.3     1  UNL1        0.1110
     13 N         137.8502  142.9303  163.4427 N.am    1  UNL1       -0.2979
     14 C         137.8794  142.1850  162.1412 C.2     1  UNL1        0.2651
     15 O         137.7225  142.9281  160.8478 O.2     1  UNL1       -0.2684
     16 H         137.9532  142.4426  164.2917 H       1  UNL1        0.1498
     17 C         139.9410  140.3036  167.7061 C.ar    1  UNL1        0.2221
     18 N         139.9437  140.8093  169.1183 N.ar    1  UNL1       -0.2119
     19 C         141.0339  141.7285  169.5837 C.ar    1  UNL1        0.1050
     20 C         142.1213  142.1421  168.6370 C.ar    1  UNL1        0.0596
     21 C         142.1187  141.6364  167.2248 C.ar    1  UNL1        0.1682
     22 N         141.0286  140.7172  166.7593 N.ar    1  UNL1       -0.1944
     23 N         143.2062  142.0499  166.2780 N.ar    1  UNL1       -0.2108
     24 C         143.7153  141.2493  165.1162 C.ar    1  UNL1        0.1007
     25 C         144.7992  142.0412  164.4470 C.ar    1  UNL1        0.0340
     26 C         144.9600  143.3313  165.1953 C.ar    1  UNL1        0.1192
     27 N         143.9755  143.3366  166.3269 N.ar    1  UNL1       -0.1624
     28 C         145.5845  141.6175  163.2413 C.3     1  UNL1        0.1024
     29 N         144.8902  141.4154  161.9270 N.3     1  UNL1       -0.2664
     30 C         144.8018  142.5449  160.9440 C.3     1  UNL1        0.0899
     31 C         144.2843  140.0837  161.5958 C.3     1  UNL1        0.0899
@<TRIPOS>BOND
     1    12    13    1
     2    13    14   am
     3    14    15    2
     4    14     3    1
     5     3     4   ar
     6     4     5   ar
     7     5     6   ar
     8     6     7   ar
     9     7     8   ar
    10     8     9   ar
    11     9     1    1
    12     1    17    1
    13    17    18   ar
    14    18    19   ar
    15    19    20   ar
    16    20    21   ar
    17    21    23    1
    18    23    24   ar
    19    24    25   ar
    20    25    28    1
    21    28    29    1
    22    29    30    1
    23    29    31    1
    24    25    26   ar
    25    26    27   ar
    26    21    22   ar
    27     9    10   ar
    28    10    11   ar
    29    11     3   ar
    30    11     6   ar
    31    22    17   ar
    32    27    23   ar
    33    13    16    1
    34     1     2    1
@<TRIPOS>MOLECULE
*****
 31 34 0 0 0
SMALL
GASTEIGER

@<TRIPOS>ATOM
      1 N         144.1100  143.2018  166.5026 N.pl3   1  UNL1       -0.2824
      2 H         144.7450  143.8307  166.9154 H       1  UNL1        0.1551
      3 C         141.7281  143.9044  161.7849 C.ar    1  UNL1        0.1522
      4 N         142.2073  143.5186  160.4168 N.ar    1  UNL1       -0.2190
      5 C         143.5465  142.8592  160.5637 C.ar    1  UNL1        0.1829
      6 N         143.8950  142.8375  162.0225 N.ar    1  UNL1       -0.2862
      7 C         145.0905  142.3129  162.7611 C.ar    1  UNL1        0.0828
      8 C         145.1622  142.4343  164.2544 C.ar    1  UNL1        0.0338
      9 C         144.0383  143.0803  165.0091 C.ar    1  UNL1        0.0535
     10 C         142.8428  143.6049  164.2706 C.ar    1  UNL1        0.0340
     11 C         142.7712  143.4835  162.7772 C.ar    1  UNL1        0.0888
     12 C         138.0151  144.5052  163.0510 C.3     1  UNL1        0.1110
     13 N         139.3100  143.8189  162.7314 N.am    1  UNL1       -0.2979
     14 C         140.4332  144.5907  162.1045 C.2     1  UNL1        0.2651
     15 O         140.2613  146.0488  161.7973 O.2     1  UNL1       -0.2684
     16 H         139.4228  142.8619  162.9331 H       1  UNL1        0.1498
     17 C         143.2142  142.3649  167.3669 C.ar    1  UNL1        0.2221
     18 N         143.3664  142.3987  168.8588 N.ar    1  UNL1       -0.2119
     19 C         142.4705  141.5618  169.7232 C.ar    1  UNL1        0.1050
     20 C         141.4226  140.6912  169.0957 C.ar    1  UNL1        0.0596
     21 C         141.2705  140.6574  167.6038 C.ar    1  UNL1        0.1682
     22 N         142.1663  141.4942  166.7394 N.ar    1  UNL1       -0.1944
     23 N         140.2226  139.7867  166.9763 N.ar    1  UNL1       -0.2108
     24 C         140.3243  139.1057  165.6437 C.ar    1  UNL1        0.1007
     25 C         139.0535  138.3423  165.4150 C.ar    1  UNL1        0.0340
     26 C         138.1664  138.5515  166.6064 C.ar    1  UNL1        0.1192
     27 N         138.8889  139.4442  167.5713 N.ar    1  UNL1       -0.1624
     28 C         138.7272  137.5150  164.2071 C.3     1  UNL1        0.1024
     29 N         139.0158  138.0458  162.8341 N.3     1  UNL1       -0.2664
     30 C         140.3684  137.8398  162.2194 C.3     1  UNL1        0.0899
     31 C         137.9516  138.7827  162.0760 C.3     1  UNL1        0.0899
@<TRIPOS>BOND
     1    12    13    1
     2    13    14   am
     3    14    15    2
     4    14     3    1
     5     3     4   ar
     6     4     5   ar
     7     5     6   ar
     8     6     7   ar
     9     7     8   ar
    10     8     9   ar
    11     9     1    1
    12     1    17    1
    13    17    18   ar
    14    18    19   ar
    15    19    20   ar
    16    20    21   ar
    17    21    23    1
    18    23    24   ar
    19    24    25   ar
    20    25    28    1
    21    28    29    1
    22    29    30    1
    23    29    31    1
    24    25    26   ar
    25    26    27   ar
    26    21    22   ar
    27     9    10   ar
    28    10    11   ar
    29    11     3   ar
    30    11     6   ar
    31    22    17   ar
    32    27    23   ar
    33    13    16    1
    34     1     2    1
@<TRIPOS>MOLECULE
*****
 31 34 0 0 0
SMALL
GASTEIGER

@<TRIPOS>ATOM
      1 N         141.9070  139.7391  162.2963 N.pl3   1  UNL1       -0.2824
      2 H         142.7016  139.2043  162.0685 H       1  UNL1        0.1551
      3 C         139.7128  144.5921  162.0564 C.ar    1  UNL1        0.1522
      4 N         139.9176  145.6731  161.0369 N.ar    1  UNL1       -0.2190
      5 C         140.8954  145.1692  160.0171 C.ar    1  UNL1        0.1829
      6 N         141.2949  143.7768  160.4063 N.ar    1  UNL1       -0.2862
      7 C         142.2298  142.7876  159.7759 C.ar    1  UNL1        0.0828
      8 C         142.4338  141.4417  160.4059 C.ar    1  UNL1        0.0338
      9 C         141.7029  141.0850  161.6663 C.ar    1  UNL1        0.0535
     10 C         140.7680  142.0742  162.2967 C.ar    1  UNL1        0.0340
     11 C         140.5640  143.4201  161.6667 C.ar    1  UNL1        0.0888
     12 C         138.4798  145.1309  165.7900 C.3     1  UNL1        0.1110
     13 N         139.3781  145.0536  164.5912 N.am    1  UNL1       -0.2979
     14 C         138.8145  144.6694  163.2552 C.2     1  UNL1        0.2651
     15 O         137.3527  144.3627  163.1181 O.2     1  UNL1       -0.2684
     16 H         140.3376  145.2549  164.6813 H       1  UNL1        0.1498
     17 C         140.9005  139.2079  163.2734 C.ar    1  UNL1        0.2221
     18 N         139.8777  138.2058  162.8264 N.ar    1  UNL1       -0.2119
     19 C         138.8711  137.6747  163.8036 C.ar    1  UNL1        0.1050
     20 C         138.8873  138.1457  165.2276 C.ar    1  UNL1        0.0596
     21 C         139.9101  139.1478  165.6745 C.ar    1  UNL1        0.1682
     22 N         140.9166  139.6789  164.6975 N.ar    1  UNL1       -0.1944
     23 N         139.9262  139.6188  167.0985 N.ar    1  UNL1       -0.2108
     24 C         141.0829  140.2675  167.7996 C.ar    1  UNL1        0.1007
     25 C         140.6601  140.5734  169.2059 C.ar    1  UNL1        0.0340
     26 C         139.2422  140.1137  169.3740 C.ar    1  UNL1        0.1192
     27 N         138.7887  139.5237  168.0716 N.ar    1  UNL1       -0.1624
     28 C         141.5066  141.2246  170.2591 C.3     1  UNL1        0.1024
     29 N         141.6984  142.7123  170.2533 N.3     1  UNL1       -0.2664
     30 C         140.5800  143.6110  169.8157 C.3     1  UNL1        0.0899
     31 C         143.0087  143.3013  170.6850 C.3     1  UNL1        0.0899
@<TRIPOS>BOND
     1    12    13    1
     2    13    14   am
     3    14    15    2
     4    14     3    1
     5     3     4   ar
     6     4     5   ar
     7     5     6   ar
     8     6     7   ar
     9     7     8   ar
    10     8     9   ar
    11     9     1    1
    12     1    17    1
    13    17    18   ar
    14    18    19   ar
    15    19    20   ar
    16    20    21   ar
    17    21    23    1
    18    23    24   ar
    19    24    25   ar
    20    25    28    1
    21    28    29    1
    22    29    30    1
    23    29    31    1
    24    25    26   ar
    25    26    27   ar
    26    21    22   ar
    27     9    10   ar
    28    10    11   ar
    29    11     3   ar
    30    11     6   ar
    31    22    17   ar
    32    27    23   ar
    33    13    16    1
    34     1     2    1
@<TRIPOS>MOLECULE
*****
 31 34 0 0 0
SMALL
GASTEIGER

@<TRIPOS>ATOM
      1 N         137.6333  140.4451  161.7951 N.pl3   1  UNL1       -0.2824
      2 H         136.6626  140.3149  161.6947 H       1  UNL1        0.1551
      3 C         141.0722  144.4473  161.0332 C.ar    1  UNL1        0.1522
      4 N         141.4273  145.1599  159.7620 N.ar    1  UNL1       -0.2190
      5 C         140.6259  144.5508  158.6499 C.ar    1  UNL1        0.1829
      6 N         139.7755  143.4618  159.2338 N.ar    1  UNL1       -0.2862
      7 C         138.7856  142.5202  158.6145 C.ar    1  UNL1        0.0828
      8 C         138.0716  141.5147  159.4683 C.ar    1  UNL1        0.0338
      9 C         138.3474  141.4507  160.9414 C.ar    1  UNL1        0.0535
     10 C         139.3373  142.3923  161.5606 C.ar    1  UNL1        0.0340
     11 C         140.0513  143.3979  160.7068 C.ar    1  UNL1        0.0888
     12 C         143.6828  145.2111  163.9232 C.3     1  UNL1        0.1110
     13 N         143.1165  144.9245  162.5641 N.am    1  UNL1       -0.2979
     14 C         141.6385  144.7338  162.3923 C.2     1  UNL1        0.2651
     15 O         140.7270  144.8297  163.5797 O.2     1  UNL1       -0.2684
     16 H         143.7147  144.8616  161.7848 H       1  UNL1        0.1498
     17 C         138.3981  139.6380  162.8018 C.ar    1  UNL1        0.2221
     18 N         139.0896  138.3750  162.3814 N.ar    1  UNL1       -0.2119
     19 C         139.8545  137.5678  163.3882 C.ar    1  UNL1        0.1050
     20 C         139.9278  138.0237  164.8154 C.ar    1  UNL1        0.0596
     21 C         139.2363  139.2866  165.2358 C.ar    1  UNL1        0.1682
     22 N         138.4715  140.0938  164.2291 N.ar    1  UNL1       -0.1944
     23 N         139.3097  139.7424  166.6629 N.ar    1  UNL1       -0.2108
     24 C         140.1916  140.8323  167.1962 C.ar    1  UNL1        0.1007
     25 C         139.9410  140.9519  168.6703 C.ar    1  UNL1        0.0340
     26 C         138.9041  139.9359  169.0480 C.ar    1  UNL1        0.1192
     27 N         138.5140  139.1884  167.8074 N.ar    1  UNL1       -0.1624
     28 C         140.6098  141.9179  169.6028 C.3     1  UNL1        0.1024
     29 N         142.0469  141.7194  169.9842 N.3     1  UNL1       -0.2664
     30 C         142.6148  140.3339  170.0729 C.3     1  UNL1        0.0899
     31 C         142.9160  142.9064  170.2769 C.3     1  UNL1        0.0899
@<TRIPOS>BOND
     1    12    13    1
     2    13    14   am
     3    14    15    2
     4    14     3    1
     5     3     4   ar
     6     4     5   ar
     7     5     6   ar
     8     6     7   ar
     9     7     8   ar
    10     8     9   ar
    11     9     1    1
    12     1    17    1
    13    17    18   ar
    14    18    19   ar
    15    19    20   ar
    16    20    21   ar
    17    21    23    1
    18    23    24   ar
    19    24    25   ar
    20    25    28    1
    21    28    29    1
    22    29    30    1
    23    29    31    1
    24    25    26   ar
    25    26    27   ar
    26    21    22   ar
    27     9    10   ar
    28    10    11   ar
    29    11     3   ar
    30    11     6   ar
    31    22    17   ar
    32    27    23   ar
    33    13    16    1
    34     1     2    1
@<TRIPOS>MOLECULE
*****
 31 34 0 0 0
SMALL
GASTEIGER

@<TRIPOS>ATOM
      1 N         138.3636  141.8510  160.3434 N.pl3   1  UNL1       -0.2824
      2 H         137.7182  142.1560  159.6655 H       1  UNL1        0.1551
      3 C         143.3584  139.9870  160.3928 C.ar    1  UNL1        0.1522
      4 N         143.9126  138.7505  159.7497 N.ar    1  UNL1       -0.2190
      5 C         142.7903  138.0558  159.0372 C.ar    1  UNL1        0.1829
      6 N         141.5423  138.8630  159.2400 N.ar    1  UNL1       -0.2862
      7 C         140.1317  138.6653  158.7699 C.ar    1  UNL1        0.0828
      8 C         139.0722  139.6613  159.1378 C.ar    1  UNL1        0.0338
      9 C         139.4233  140.8549  159.9756 C.ar    1  UNL1        0.0535
     10 C         140.8339  141.0526  160.4456 C.ar    1  UNL1        0.0340
     11 C         141.8935  140.0566  160.0778 C.ar    1  UNL1        0.0888
     12 C         145.5747  141.5407  163.2953 C.3     1  UNL1        0.1110
     13 N         144.8001  140.5480  162.4802 N.am    1  UNL1       -0.2979
     14 C         144.1330  140.9798  161.2079 C.2     1  UNL1        0.2651
     15 O         144.2406  142.4043  160.7509 O.2     1  UNL1       -0.2684
     16 H         144.7295  139.6130  162.7803 H       1  UNL1        0.1498
     17 C         138.2874  142.3821  161.7441 C.ar    1  UNL1        0.2221
     18 N         137.9232  143.8175  161.9832 N.ar    1  UNL1       -0.2119
     19 C         137.8470  144.3486  163.3840 C.ar    1  UNL1        0.1050
     20 C         138.1350  143.4445  164.5456 C.ar    1  UNL1        0.0596
     21 C         138.4992  142.0091  164.3066 C.ar    1  UNL1        0.1682
     22 N         138.5755  141.4779  162.9059 N.ar    1  UNL1       -0.1944
     23 N         138.7873  141.1050  165.4682 N.ar    1  UNL1       -0.2108
     24 C         139.7860  141.3604  166.5579 C.ar    1  UNL1        0.1007
     25 C         139.7432  140.1999  167.5073 C.ar    1  UNL1        0.0340
     26 C         138.7179  139.2272  167.0044 C.ar    1  UNL1        0.1192
     27 N         138.1271  139.7866  165.7442 N.ar    1  UNL1       -0.1624
     28 C         140.5788  140.0401  168.7427 C.3     1  UNL1        0.1024
     29 N         142.0746  140.0010  168.6365 N.3     1  UNL1       -0.2664
     30 C         142.9175  140.7089  169.6554 C.3     1  UNL1        0.0899
     31 C         142.7273  139.2539  167.5114 C.3     1  UNL1        0.0899
@<TRIPOS>BOND
     1    12    13    1
     2    13    14   am
     3    14    15    2
     4    14     3    1
     5     3     4   ar
     6     4     5   ar
     7     5     6   ar
     8     6     7   ar
     9     7     8   ar
    10     8     9   ar
    11     9     1    1
    12     1    17    1
    13    17    18   ar
    14    18    19   ar
    15    19    20   ar
    16    20    21   ar
    17    21    23    1
    18    23    24   ar
    19    24    25   ar
    20    25    28    1
    21    28    29    1
    22    29    30    1
    23    29    31    1
    24    25    26   ar
    25    26    27   ar
    26    21    22   ar
    27     9    10   ar
    28    10    11   ar
    29    11     3   ar
    30    11     6   ar
    31    22    17   ar
    32    27    23   ar
    33    13    16    1
    34     1     2    1
@<TRIPOS>MOLECULE
*****
 31 34 0 0 0
SMALL
GASTEIGER

@<TRIPOS>ATOM
      1 N         140.8667  145.5788  160.8622 N.pl3   1  UNL1       -0.2824
      2 H         141.5061  146.3130  161.0083 H       1  UNL1        0.1551
      3 C         139.5659  146.1983  155.7292 C.ar    1  UNL1        0.1522
      4 N         139.4663  145.1639  154.6474 N.ar    1  UNL1       -0.2190
      5 C         139.8069  143.8319  155.2471 C.ar    1  UNL1        0.1829
      6 N         140.1171  144.0430  156.6994 N.ar    1  UNL1       -0.2862
      7 C         140.5159  143.0924  157.7890 C.ar    1  UNL1        0.0828
      8 C         140.7658  143.6044  159.1766 C.ar    1  UNL1        0.0338
      9 C         140.6168  145.0669  159.4746 C.ar    1  UNL1        0.0535
     10 C         140.2180  146.0175  158.3850 C.ar    1  UNL1        0.0340
     11 C         139.9681  145.5055  156.9974 C.ar    1  UNL1        0.0888
     12 C         138.3660  149.9006  156.5064 C.3     1  UNL1        0.1110
     13 N         138.6235  148.4313  156.6650 N.am    1  UNL1       -0.2979
     14 C         139.3085  147.6675  155.5706 C.2     1  UNL1        0.2651
     15 O         139.7360  148.3730  154.3179 O.2     1  UNL1       -0.2684
     16 H         138.3428  147.9683  157.4872 H       1  UNL1        0.1498
     17 C         140.1423  144.9722  162.0272 C.ar    1  UNL1        0.2221
     18 N         138.6435  145.0028  162.0769 N.ar    1  UNL1       -0.2119
     19 C         137.9191  144.3961  163.2419 C.ar    1  UNL1        0.1050
     20 C         138.6936  143.7588  164.3573 C.ar    1  UNL1        0.0596
     21 C         140.1925  143.7282  164.3076 C.ar    1  UNL1        0.1682
     22 N         140.9168  144.3349  163.1426 N.ar    1  UNL1       -0.1944
     23 N         140.9670  143.0910  165.4229 N.ar    1  UNL1       -0.2108
     24 C         140.3953  142.5704  166.7083 C.ar    1  UNL1        0.1007
     25 C         141.5241  142.0201  167.5285 C.ar    1  UNL1        0.0340
     26 C         142.7936  142.2006  166.7501 C.ar    1  UNL1        0.1192
     27 N         142.4492  142.8624  165.4488 N.ar    1  UNL1       -0.1624
     28 C         141.4046  141.3985  168.8884 C.3     1  UNL1        0.1024
     29 N         140.1753  141.6338  169.7152 N.3     1  UNL1       -0.2664
     30 C         139.9787  142.9489  170.4094 C.3     1  UNL1        0.0899
     31 C         139.1426  140.5539  169.8478 C.3     1  UNL1        0.0899
@<TRIPOS>BOND
     1    12    13    1
     2    13    14   am
     3    14    15    2
     4    14     3    1
     5     3     4   ar
     6     4     5   ar
     7     5     6   ar
     8     6     7   ar
     9     7     8   ar
    10     8     9   ar
    11     9     1    1
    12     1    17    1
    13    17    18   ar
    14    18    19   ar
    15    19    20   ar
    16    20    21   ar
    17    21    23    1
    18    23    24   ar
    19    24    25   ar
    20    25    28    1
    21    28    29    1
    22    29    30    1
    23    29    31    1
    24    25    26   ar
    25    26    27   ar
    26    21    22   ar
    27     9    10   ar
    28    10    11   ar
    29    11     3   ar
    30    11     6   ar
    31    22    17   ar
    32    27    23   ar
    33    13    16    1
    34     1     2    1
@<TRIPOS>MOLECULE
*****
 31 34 0 0 0
SMALL
GASTEIGER

@<TRIPOS>ATOM
      1 N         137.5935  143.0358  162.7220 N.pl3   1  UNL1       -0.2824
      2 H         136.7321  143.4391  162.9761 H       1  UNL1        0.1551
      3 C         138.7927  138.9260  165.8993 C.ar    1  UNL1        0.1522
      4 N         138.9278  137.4724  165.5548 N.ar    1  UNL1       -0.2190
      5 C         138.6605  137.3172  164.0870 C.ar    1  UNL1        0.1829
      6 N         138.3602  138.6748  163.5244 N.ar    1  UNL1       -0.2862
      7 C         138.0230  139.1341  162.1369 C.ar    1  UNL1        0.0828
      8 C         137.7674  140.5878  161.8694 C.ar    1  UNL1        0.0338
      9 C         137.8491  141.5821  162.9895 C.ar    1  UNL1        0.0535
     10 C         138.1864  141.1228  164.3770 C.ar    1  UNL1        0.0340
     11 C         138.4419  139.6692  164.6445 C.ar    1  UNL1        0.0888
     12 C         140.1929  141.2011  168.8343 C.3     1  UNL1        0.1110
     13 N         140.0094  140.5967  167.4737 N.am    1  UNL1       -0.2979
     14 C         138.9762  139.5304  167.2598 C.2     1  UNL1        0.2651
     15 O         138.1266  139.0687  168.4065 O.2     1  UNL1       -0.2684
     16 H         140.5671  140.8998  166.7212 H       1  UNL1        0.1498
     17 C         138.6504  143.8751  162.0674 C.ar    1  UNL1        0.2221
     18 N         138.6384  145.3651  162.2396 N.ar    1  UNL1       -0.2119
     19 C         139.6953  146.2044  161.5849 C.ar    1  UNL1        0.1050
     20 C         140.7642  145.5536  160.7580 C.ar    1  UNL1        0.0596
     21 C         140.7763  144.0636  160.5857 C.ar    1  UNL1        0.1682
     22 N         139.7194  143.2243  161.2404 N.ar    1  UNL1       -0.1944
     23 N         141.8452  143.4128  159.7588 N.ar    1  UNL1       -0.2108
     24 C         142.1370  141.9429  159.6934 C.ar    1  UNL1        0.1007
     25 C         143.2821  141.7393  158.7462 C.ar    1  UNL1        0.0340
     26 C         143.6982  143.0834  158.2263 C.ar    1  UNL1        0.1192
     27 N         142.8101  144.1177  158.8521 N.ar    1  UNL1       -0.1624
     28 C         143.9024  140.4228  158.3828 C.3     1  UNL1        0.1024
     29 N         143.5758  139.1945  159.1795 N.3     1  UNL1       -0.2664
     30 C         142.7609  138.0959  158.5637 C.3     1  UNL1        0.0899
     31 C         144.0641  139.0647  160.5919 C.3     1  UNL1        0.0899
@<TRIPOS>BOND
     1    12    13    1
     2    13    14   am
     3    14    15    2
     4    14     3    1
     5     3     4   ar
     6     4     5   ar
     7     5     6   ar
     8     6     7   ar
     9     7     8   ar
    10     8     9   ar
    11     9     1    1
    12     1    17    1
    13    17    18   ar
    14    18    19   ar
    15    19    20   ar
    16    20    21   ar
    17    21    23    1
    18    23    24   ar
    19    24    25   ar
    20    25    28    1
    21    28    29    1
    22    29    30    1
    23    29    31    1
    24    25    26   ar
    25    26    27   ar
    26    21    22   ar
    27     9    10   ar
    28    10    11   ar
    29    11     3   ar
    30    11     6   ar
    31    22    17   ar
    32    27    23   ar
    33    13    16    1
    34     1     2    1
@<TRIPOS>MOLECULE
*****
 31 34 0 0 0
SMALL
GASTEIGER

@<TRIPOS>ATOM
      1 N         137.4912  142.8900  162.4545 N.pl3   1  UNL1       -0.2824
      2 H         136.5719  143.1895  162.2693 H       1  UNL1        0.1551
      3 C         138.6687  138.7451  165.5942 C.ar    1  UNL1        0.1522
      4 N         138.8508  137.3023  165.2269 N.ar    1  UNL1       -0.2190
      5 C         138.6418  137.1707  163.7474 C.ar    1  UNL1        0.1829
      6 N         138.3306  138.5323  163.2003 N.ar    1  UNL1       -0.2862
      7 C         138.0342  139.0118  161.8103 C.ar    1  UNL1        0.0828
      8 C         137.7544  140.4643  161.5617 C.ar    1  UNL1        0.0338
      9 C         137.7710  141.4374  162.7031 C.ar    1  UNL1        0.0535
     10 C         138.0674  140.9579  164.0932 C.ar    1  UNL1        0.0340
     11 C         138.3472  139.5054  164.3417 C.ar    1  UNL1        0.0888
     12 C         139.9134  140.9831  168.6262 C.3     1  UNL1        0.1110
     13 N         139.7948  140.4024  167.2482 N.am    1  UNL1       -0.2979
     14 C         138.7872  139.3259  166.9722 C.2     1  UNL1        0.2651
     15 O         137.8984  138.8303  168.0740 O.2     1  UNL1       -0.2684
     16 H         140.3782  140.7277  166.5250 H       1  UNL1        0.1498
     17 C         138.6122  143.8861  162.4880 C.ar    1  UNL1        0.2221
     18 N         138.3702  145.3022  162.0566 N.ar    1  UNL1       -0.2119
     19 C         139.4913  146.2984  162.0901 C.ar    1  UNL1        0.1050
     20 C         140.8541  145.8784  162.5551 C.ar    1  UNL1        0.0596
     21 C         141.0960  144.4623  162.9865 C.ar    1  UNL1        0.1682
     22 N         139.9751  143.4662  162.9530 N.ar    1  UNL1       -0.1944
     23 N         142.4589  144.0424  163.4515 N.ar    1  UNL1       -0.2108
     24 C         143.1202  142.7260  163.1687 C.ar    1  UNL1        0.1007
     25 C         144.4697  142.7351  163.8233 C.ar    1  UNL1        0.0340
     26 C         144.6425  144.0571  164.5107 C.ar    1  UNL1        0.1192
     27 N         143.3998  144.8650  164.2809 N.ar    1  UNL1       -0.1624
     28 C         145.4707  141.6183  163.7954 C.3     1  UNL1        0.1024
     29 N         145.0149  140.2081  163.5641 N.3     1  UNL1       -0.2664
     30 C         144.5656  139.7796  162.1986 C.3     1  UNL1        0.0899
     31 C         145.0083  139.2264  164.6983 C.3     1  UNL1        0.0899
@<TRIPOS>BOND
     1    12    13    1
     2    13    14   am
     3    14    15    2
     4    14     3    1
     5     3     4   ar
     6     4     5   ar
     7     5     6   ar
     8     6     7   ar
     9     7     8   ar
    10     8     9   ar
    11     9     1    1
    12     1    17    1
    13    17    18   ar
    14    18    19   ar
    15    19    20   ar
    16    20    21   ar
    17    21    23    1
    18    23    24   ar
    19    24    25   ar
    20    25    28    1
    21    28    29    1
    22    29    30    1
    23    29    31    1
    24    25    26   ar
    25    26    27   ar
    26    21    22   ar
    27     9    10   ar
    28    10    11   ar
    29    11     3   ar
    30    11     6   ar
    31    22    17   ar
    32    27    23   ar
    33    13    16    1
    34     1     2    1
@<TRIPOS>MOLECULE
*****
 31 34 0 0 0
SMALL
GASTEIGER

@<TRIPOS>ATOM
      1 N         141.4600  142.0649  163.5376 N.pl3   1  UNL1       -0.2824
      2 H         142.4213  141.8522  163.5355 H       1  UNL1        0.1551
      3 C         139.2782  139.8824  167.8851 C.ar    1  UNL1        0.1522
      4 N         138.1705  138.8757  167.9835 N.ar    1  UNL1       -0.2190
      5 C         137.7248  138.5395  166.5913 C.ar    1  UNL1        0.1829
      6 N         138.5570  139.3383  165.6325 N.ar    1  UNL1       -0.2862
      7 C         138.5646  139.4172  164.1346 C.ar    1  UNL1        0.0828
      8 C         139.5322  140.3260  163.4363 C.ar    1  UNL1        0.0338
      9 C         140.4923  141.1560  164.2360 C.ar    1  UNL1        0.0535
     10 C         140.4847  141.0771  165.7338 C.ar    1  UNL1        0.0340
     11 C         139.5171  140.1683  166.4321 C.ar    1  UNL1        0.0888
     12 C         140.8010  142.6001  170.3439 C.3     1  UNL1        0.1110
     13 N         140.0619  141.9870  169.1916 N.am    1  UNL1       -0.2979
     14 C         140.0173  140.4955  169.0374 C.2     1  UNL1        0.2651
     15 O         140.7119  139.6174  170.0355 O.2     1  UNL1       -0.2684
     16 H         139.6060  142.5634  168.5365 H       1  UNL1        0.1498
     17 C         140.9631  143.2977  162.8426 C.ar    1  UNL1        0.2221
     18 N         140.0936  144.2742  163.5777 N.ar    1  UNL1       -0.2119
     19 C         139.5967  145.5071  162.8826 C.ar    1  UNL1        0.1050
     20 C         139.9694  145.7635  161.4524 C.ar    1  UNL1        0.0596
     21 C         140.8389  144.7870  160.7173 C.ar    1  UNL1        0.1682
     22 N         141.3358  143.5541  161.4124 N.ar    1  UNL1       -0.1944
     23 N         141.2116  145.0434  159.2872 N.ar    1  UNL1       -0.2108
     24 C         140.3754  145.7681  158.2745 C.ar    1  UNL1        0.1007
     25 C         141.1329  145.7927  156.9800 C.ar    1  UNL1        0.0340
     26 C         142.4373  145.0831  157.1928 C.ar    1  UNL1        0.1192
     27 N         142.4859  144.6200  158.6187 N.ar    1  UNL1       -0.1624
     28 C         140.6678  146.4171  155.6980 C.3     1  UNL1        0.1024
     29 N         139.2355  146.8352  155.5438 N.3     1  UNL1       -0.2664
     30 C         138.8499  148.2730  155.7282 C.3     1  UNL1        0.0899
     31 C         138.1888  145.8155  155.2051 C.3     1  UNL1        0.0899
@<TRIPOS>BOND
     1    12    13    1
     2    13    14   am
     3    14    15    2
     4    14     3    1
     5     3     4   ar
     6     4     5   ar
     7     5     6   ar
     8     6     7   ar
     9     7     8   ar
    10     8     9   ar
    11     9     1    1
    12     1    17    1
    13    17    18   ar
    14    18    19   ar
    15    19    20   ar
    16    20    21   ar
    17    21    23    1
    18    23    24   ar
    19    24    25   ar
    20    25    28    1
    21    28    29    1
    22    29    30    1
    23    29    31    1
    24    25    26   ar
    25    26    27   ar
    26    21    22   ar
    27     9    10   ar
    28    10    11   ar
    29    11     3   ar
    30    11     6   ar
    31    22    17   ar
    32    27    23   ar
    33    13    16    1
    34     1     2    1
