@<TRIPOS>MOLECULE
*****
 32 35 0 0 0
SMALL
GASTEIGER

@<TRIPOS>ATOM
      1 C         141.7298  141.3120  167.7764 C.3     1  UNL1        0.2766
      2 N         142.7750  142.3390  168.0971 N.2     1  UNL1       -0.2227
      3 C         143.4432  141.9358  169.3782 C.2     1  UNL1        0.1396
      4 C         144.5494  142.6784  170.0672 C.3     1  UNL1        0.0597
      5 C         142.8110  140.6597  169.8491 C.2     1  UNL1        0.3285
      6 N         143.1740  139.9021  171.0918 N.pl3   1  UNL1       -0.2454
      7 N         141.7521  140.2741  168.8592 N.2     1  UNL1       -0.0450
      8 H         143.8872  140.2373  171.6819 H       1  UNL1        0.2885
      9 H         142.6991  139.0698  171.3173 H       1  UNL1        0.2885
     10 C         141.4781  142.1728  166.5740 C.3     1  UNL1        0.0749
     11 C         140.1572  142.8644  166.4102 C.3     1  UNL1        0.0282
     12 C         139.9055  143.7252  165.2078 C.3     1  UNL1        0.0936
     13 N         140.9746  143.8942  164.1693 N.am    1  UNL1       -0.2795
     14 C         140.7228  144.7550  162.9669 C.2     1  UNL1        0.2261
     15 C         139.4019  145.4468  162.8030 C.3     1  UNL1        0.0948
     16 O         141.7919  144.9241  161.9284 O.2     1  UNL1       -0.2749
     17 C         142.2954  143.2026  164.3331 C.3     1  UNL1        0.0936
     18 C         142.5471  142.3418  165.5355 C.3     1  UNL1        0.0282
     19 C         139.5746  139.2124  165.1886 C.ar    1  UNL1       -0.0000
     20 C         138.4363  138.7709  166.0600 C.ar    1  UNL1       -0.0000
     21 C         138.3959  139.1764  167.5037 C.ar    1  UNL1       -0.0001
     22 C         139.4937  140.0234  168.0758 C.ar    1  UNL1        0.0017
     23 C         140.6320  140.4650  167.2043 C.ar    1  UNL1        0.0437
     24 C         140.6724  140.0594  165.7607 C.ar    1  UNL1        0.0017
     25 C         140.9605  138.0261  161.6641 C.ar    1  UNL1        0.1387
     26 C         139.6960  137.9959  160.8579 C.ar    1  UNL1        0.0369
     27 C         138.3910  138.3712  161.4952 C.ar    1  UNL1        0.0031
     28 C         138.3505  138.7767  162.9387 C.ar    1  UNL1        0.0002
     29 C         139.6150  138.8069  163.7450 C.ar    1  UNL1        0.0030
     30 C         140.9200  138.4316  163.1077 C.ar    1  UNL1        0.0369
     31 C         143.5584  138.0248  161.6889 C.3     1  UNL1        0.2525
     32 O         142.2655  137.6508  161.0268 O.3     1  UNL1       -0.4714
@<TRIPOS>BOND
     1    31    32    1
     2    32    25    1
     3    25    26   ar
     4    26    27   ar
     5    27    28   ar
     6    28    29   ar
     7    29    19    1
     8    19    20   ar
     9    20    21   ar
    10    21    22   ar
    11    22    23   ar
    12    23     1    1
    13     1    10    1
    14    10    11    1
    15    11    12    1
    16    12    13    1
    17    13    14   am
    18    14    15    1
    19    14    16    2
    20    13    17    1
    21    17    18    1
    22     1     2    1
    23     2     3    2
    24     3     4    1
    25     3     5    1
    26     5     6    1
    27     5     7    2
    28    23    24   ar
    29    29    30   ar
    30    30    25   ar
    31    24    19   ar
    32     7     1    1
    33    18    10    1
    34     6     8    1
    35     6     9    1
@<TRIPOS>MOLECULE
*****
 32 35 0 0 0
SMALL
GASTEIGER

@<TRIPOS>ATOM
      1 C         139.8828  140.9129  167.4232 C.3     1  UNL1        0.2766
      2 N         139.8784  142.1762  168.2319 N.2     1  UNL1       -0.2227
      3 C         139.8843  141.7974  169.6833 C.2     1  UNL1        0.1396
      4 C         139.8826  142.7489  170.8429 C.3     1  UNL1        0.0597
      5 C         139.8924  140.3000  169.7715 C.2     1  UNL1        0.3285
      6 N         139.9001  139.4913  171.0348 N.pl3   1  UNL1       -0.2454
      7 N         139.8914  139.7534  168.3747 N.2     1  UNL1       -0.0450
      8 H         139.9001  139.9439  171.9091 H       1  UNL1        0.2885
      9 H         139.9051  138.5078  170.9897 H       1  UNL1        0.2885
     10 C         139.8747  141.8493  166.2513 C.3     1  UNL1        0.0749
     11 C         141.0340  142.7728  166.0213 C.3     1  UNL1        0.0282
     12 C         141.0259  143.7092  164.8495 C.3     1  UNL1        0.0936
     13 N         139.8585  143.7220  163.9078 N.am    1  UNL1       -0.2795
     14 C         139.8504  144.6584  162.7359 C.2     1  UNL1        0.2261
     15 C         141.0098  145.5820  162.5059 C.3     1  UNL1        0.0948
     16 O         138.6829  144.6713  161.7942 O.2     1  UNL1       -0.2749
     17 C         138.6991  142.7985  164.1378 C.3     1  UNL1        0.0936
     18 C         138.7072  141.8622  165.3096 C.3     1  UNL1        0.0282
     19 C         140.9447  138.7777  164.2509 C.ar    1  UNL1       -0.0000
     20 C         139.8908  137.7104  164.2619 C.ar    1  UNL1       -0.0000
     21 C         138.8342  137.7105  165.3267 C.ar    1  UNL1       -0.0001
     22 C         138.8315  138.7780  166.3804 C.ar    1  UNL1        0.0017
     23 C         139.8854  139.8454  166.3694 C.ar    1  UNL1        0.0437
     24 C         140.9420  139.8452  165.3047 C.ar    1  UNL1        0.0017
     25 C         144.1187  139.8379  162.1175 C.ar    1  UNL1        0.1387
     26 C         144.1144  138.7774  161.0567 C.ar    1  UNL1        0.0369
     27 C         143.0535  137.7170  161.0607 C.ar    1  UNL1        0.0031
     28 C         141.9969  137.7171  162.1254 C.ar    1  UNL1        0.0002
     29 C         142.0013  138.7776  163.1861 C.ar    1  UNL1        0.0030
     30 C         143.0622  139.8380  163.1822 C.ar    1  UNL1        0.0369
     31 C         145.5907  141.5528  163.3991 C.3     1  UNL1        0.2525
     32 O         145.1796  140.8983  162.1136 O.3     1  UNL1       -0.4714
@<TRIPOS>BOND
     1    31    32    1
     2    32    25    1
     3    25    26   ar
     4    26    27   ar
     5    27    28   ar
     6    28    29   ar
     7    29    19    1
     8    19    20   ar
     9    20    21   ar
    10    21    22   ar
    11    22    23   ar
    12    23     1    1
    13     1    10    1
    14    10    11    1
    15    11    12    1
    16    12    13    1
    17    13    14   am
    18    14    15    1
    19    14    16    2
    20    13    17    1
    21    17    18    1
    22     1     2    1
    23     2     3    2
    24     3     4    1
    25     3     5    1
    26     5     6    1
    27     5     7    2
    28    23    24   ar
    29    29    30   ar
    30    30    25   ar
    31    24    19   ar
    32     7     1    1
    33    18    10    1
    34     6     8    1
    35     6     9    1
@<TRIPOS>MOLECULE
*****
 32 35 0 0 0
SMALL
GASTEIGER

@<TRIPOS>ATOM
      1 C         142.5310  141.1835  167.5752 C.3     1  UNL1        0.2766
      2 N         142.7273  142.5014  168.2641 N.2     1  UNL1       -0.2227
      3 C         142.9326  142.2342  169.7259 C.2     1  UNL1        0.1396
      4 C         143.1663  143.2684  170.7869 C.3     1  UNL1        0.0597
      5 C         142.8631  140.7512  169.9402 C.2     1  UNL1        0.3285
      6 N         143.0151  140.0422  171.2533 N.pl3   1  UNL1       -0.2454
      7 N         142.6149  140.1018  168.6111 N.2     1  UNL1       -0.0450
      8 H         143.1766  140.5586  172.0758 H       1  UNL1        0.2885
      9 H         142.9533  139.0604  171.2926 H       1  UNL1        0.2885
     10 C         142.4003  142.0265  166.3413 C.3     1  UNL1        0.0749
     11 C         141.1571  142.8339  166.1130 C.3     1  UNL1        0.0282
     12 C         141.0265  143.6769  164.8791 C.3     1  UNL1        0.0936
     13 N         142.1391  143.7123  163.8737 N.am    1  UNL1       -0.2795
     14 C         142.0084  144.5553  162.6399 C.2     1  UNL1        0.2261
     15 C         140.7651  145.3629  162.4114 C.3     1  UNL1        0.0948
     16 O         143.1210  144.5907  161.6345 O.2     1  UNL1       -0.2749
     17 C         143.3823  142.9048  164.1021 C.3     1  UNL1        0.0936
     18 C         143.5129  142.0619  165.3360 C.3     1  UNL1        0.0282
     19 C         140.9585  138.9567  164.6910 C.ar    1  UNL1       -0.0000
     20 C         141.8599  137.7586  164.7345 C.ar    1  UNL1       -0.0000
     21 C         142.9852  137.7021  165.7249 C.ar    1  UNL1       -0.0001
     22 C         143.2088  138.8437  166.6718 C.ar    1  UNL1        0.0017
     23 C         142.3073  140.0419  166.6283 C.ar    1  UNL1        0.0437
     24 C         141.1822  140.0983  165.6379 C.ar    1  UNL1        0.0017
     25 C         137.9108  140.3303  162.5522 C.ar    1  UNL1        0.1387
     26 C         137.5830  139.1262  161.7200 C.ar    1  UNL1        0.0369
     27 C         138.3803  137.8656  161.8781 C.ar    1  UNL1        0.0031
     28 C         139.5055  137.8090  162.8684 C.ar    1  UNL1        0.0002
     29 C         139.8333  139.0131  163.7006 C.ar    1  UNL1        0.0030
     30 C         139.0360  140.2738  163.5425 C.ar    1  UNL1        0.0369
     31 C         137.7889  142.9252  162.5104 C.3     1  UNL1        0.2525
     32 O         137.1135  141.5910  162.3941 O.3     1  UNL1       -0.4714
@<TRIPOS>BOND
     1    31    32    1
     2    32    25    1
     3    25    26   ar
     4    26    27   ar
     5    27    28   ar
     6    28    29   ar
     7    29    19    1
     8    19    20   ar
     9    20    21   ar
    10    21    22   ar
    11    22    23   ar
    12    23     1    1
    13     1    10    1
    14    10    11    1
    15    11    12    1
    16    12    13    1
    17    13    14   am
    18    14    15    1
    19    14    16    2
    20    13    17    1
    21    17    18    1
    22     1     2    1
    23     2     3    2
    24     3     4    1
    25     3     5    1
    26     5     6    1
    27     5     7    2
    28    23    24   ar
    29    29    30   ar
    30    30    25   ar
    31    24    19   ar
    32     7     1    1
    33    18    10    1
    34     6     8    1
    35     6     9    1
@<TRIPOS>MOLECULE
*****
 32 35 0 0 0
SMALL
GASTEIGER

@<TRIPOS>ATOM
      1 C         140.9995  141.0768  167.9069 C.3     1  UNL1        0.2766
      2 N         140.5691  142.3141  168.6374 N.2     1  UNL1       -0.2227
      3 C         140.0736  141.9035  169.9925 C.2     1  UNL1        0.1396
      4 C         139.5464  142.8226  171.0542 C.3     1  UNL1        0.0597
      5 C         140.1979  140.4125  170.0993 C.2     1  UNL1        0.3285
      6 N         139.8169  139.5789  171.2866 N.pl3   1  UNL1       -0.2454
      7 N         140.7702  139.9016  168.8103 N.2     1  UNL1       -0.0450
      8 H         139.4472  140.0086  172.0915 H       1  UNL1        0.2885
      9 H         139.9365  138.6020  171.2610 H       1  UNL1        0.2885
     10 C         141.3335  142.0353  166.8024 C.3     1  UNL1        0.0749
     11 C         142.7615  142.2353  166.3893 C.3     1  UNL1        0.0282
     12 C         143.0954  143.1938  165.2848 C.3     1  UNL1        0.0936
     13 N         142.0014  143.9521  164.5935 N.am    1  UNL1       -0.2795
     14 C         142.3353  144.9106  163.4890 C.2     1  UNL1        0.2261
     15 C         143.7634  145.1107  163.0759 C.3     1  UNL1        0.0948
     16 O         141.2413  145.6689  162.7977 O.2     1  UNL1       -0.2749
     17 C         140.5734  143.7520  165.0066 C.3     1  UNL1        0.0936
     18 C         140.2394  142.7936  166.1110 C.3     1  UNL1        0.0282
     19 C         141.2744  138.7648  164.6930 C.ar    1  UNL1       -0.0000
     20 C         142.5005  137.9661  165.0224 C.ar    1  UNL1       -0.0000
     21 C         143.2264  138.2042  166.3133 C.ar    1  UNL1       -0.0001
     22 C         142.7261  139.2411  167.2748 C.ar    1  UNL1        0.0017
     23 C         141.4999  140.0399  166.9454 C.ar    1  UNL1        0.0437
     24 C         140.7741  139.8017  165.6545 C.ar    1  UNL1        0.0017
     25 C         140.5705  138.3307  160.8114 C.ar    1  UNL1        0.1387
     26 C         139.0969  138.0505  160.8202 C.ar    1  UNL1        0.0369
     27 C         138.3492  138.0084  162.1198 C.ar    1  UNL1        0.0031
     28 C         139.0750  138.2465  163.4107 C.ar    1  UNL1        0.0002
     29 C         140.5485  138.5267  163.4020 C.ar    1  UNL1        0.0030
     30 C         141.2963  138.5688  162.1023 C.ar    1  UNL1        0.0369
     31 C         142.8143  138.2648  159.5034 C.3     1  UNL1        0.2525
     32 O         141.3182  138.3729  159.5118 O.3     1  UNL1       -0.4714
@<TRIPOS>BOND
     1    31    32    1
     2    32    25    1
     3    25    26   ar
     4    26    27   ar
     5    27    28   ar
     6    28    29   ar
     7    29    19    1
     8    19    20   ar
     9    20    21   ar
    10    21    22   ar
    11    22    23   ar
    12    23     1    1
    13     1    10    1
    14    10    11    1
    15    11    12    1
    16    12    13    1
    17    13    14   am
    18    14    15    1
    19    14    16    2
    20    13    17    1
    21    17    18    1
    22     1     2    1
    23     2     3    2
    24     3     4    1
    25     3     5    1
    26     5     6    1
    27     5     7    2
    28    23    24   ar
    29    29    30   ar
    30    30    25   ar
    31    24    19   ar
    32     7     1    1
    33    18    10    1
    34     6     8    1
    35     6     9    1
@<TRIPOS>MOLECULE
*****
 32 35 0 0 0
SMALL
GASTEIGER

@<TRIPOS>ATOM
      1 C         140.3674  141.2090  167.5143 C.3     1  UNL1        0.2766
      2 N         139.3677  140.2603  168.1063 N.2     1  UNL1       -0.2227
      3 C         139.1811  140.6246  169.5494 C.2     1  UNL1        0.1396
      4 C         138.2700  139.9359  170.5219 C.3     1  UNL1        0.0597
      5 C         140.0654  141.7984  169.8492 C.2     1  UNL1        0.3285
      6 N         140.1940  142.4897  171.1742 N.pl3   1  UNL1       -0.2454
      7 N         140.7986  142.1597  168.5915 N.2     1  UNL1       -0.0450
      8 H         139.6680  142.1773  171.9455 H       1  UNL1        0.2885
      9 H         140.8044  143.2558  171.2725 H       1  UNL1        0.2885
     10 C         140.1350  140.4223  166.2584 C.3     1  UNL1        0.0749
     11 C         138.7844  140.4329  165.6060 C.3     1  UNL1        0.0282
     12 C         138.5520  139.6462  164.3501 C.3     1  UNL1        0.0936
     13 N         139.6702  138.8490  163.7468 N.am    1  UNL1       -0.2795
     14 C         139.4378  138.0623  162.4909 C.2     1  UNL1        0.2261
     15 C         138.0871  138.0729  161.8384 C.3     1  UNL1        0.0948
     16 O         140.5560  137.2651  161.8876 O.2     1  UNL1       -0.2749
     17 C         141.0208  138.8384  164.3992 C.3     1  UNL1        0.0936
     18 C         141.2532  139.6251  165.6551 C.3     1  UNL1        0.0282
     19 C         141.7657  143.5007  164.5914 C.ar    1  UNL1       -0.0000
     20 C         143.2207  143.5619  164.9506 C.ar    1  UNL1       -0.0000
     21 C         143.7247  142.8388  166.1644 C.ar    1  UNL1       -0.0001
     22 C         142.7736  142.0545  167.0189 C.ar    1  UNL1        0.0017
     23 C         141.3185  141.9933  166.6597 C.ar    1  UNL1        0.0437
     24 C         140.8145  142.7164  165.4460 C.ar    1  UNL1        0.0017
     25 C         141.5084  144.8518  160.8687 C.ar    1  UNL1        0.1387
     26 C         140.2538  145.6698  160.9502 C.ar    1  UNL1        0.0369
     27 C         139.5031  145.7649  162.2453 C.ar    1  UNL1        0.0031
     28 C         140.0070  145.0418  163.4591 C.ar    1  UNL1        0.0002
     29 C         141.2616  144.2238  163.3776 C.ar    1  UNL1        0.0030
     30 C         142.0123  144.1287  162.0825 C.ar    1  UNL1        0.0369
     31 C         141.6067  145.1921  158.2949 C.3     1  UNL1        0.2525
     32 O         142.2590  144.7568  159.5736 O.3     1  UNL1       -0.4714
@<TRIPOS>BOND
     1    31    32    1
     2    32    25    1
     3    25    26   ar
     4    26    27   ar
     5    27    28   ar
     6    28    29   ar
     7    29    19    1
     8    19    20   ar
     9    20    21   ar
    10    21    22   ar
    11    22    23   ar
    12    23     1    1
    13     1    10    1
    14    10    11    1
    15    11    12    1
    16    12    13    1
    17    13    14   am
    18    14    15    1
    19    14    16    2
    20    13    17    1
    21    17    18    1
    22     1     2    1
    23     2     3    2
    24     3     4    1
    25     3     5    1
    26     5     6    1
    27     5     7    2
    28    23    24   ar
    29    29    30   ar
    30    30    25   ar
    31    24    19   ar
    32     7     1    1
    33    18    10    1
    34     6     8    1
    35     6     9    1
@<TRIPOS>MOLECULE
*****
 32 35 0 0 0
SMALL
GASTEIGER

@<TRIPOS>ATOM
      1 C         141.1466  141.5806  168.1403 C.3     1  UNL1        0.2766
      2 N         142.3800  142.2252  168.7000 N.2     1  UNL1       -0.2227
      3 C         142.0456  142.7630  170.0598 C.2     1  UNL1        0.1396
      4 C         142.9861  143.4861  170.9777 C.3     1  UNL1        0.0597
      5 C         140.6056  142.4508  170.3405 C.2     1  UNL1        0.3285
      6 N         139.8533  142.8068  171.5884 N.pl3   1  UNL1       -0.2454
      7 N         140.0500  141.7200  169.1542 N.2     1  UNL1       -0.0450
      8 H         140.3075  143.2900  172.3160 H       1  UNL1        0.2885
      9 H         138.9053  142.5572  171.6798 H       1  UNL1        0.2885
     10 C         142.0238  141.2939  166.9578 C.3     1  UNL1        0.0749
     11 C         142.6401  142.4251  166.1895 C.3     1  UNL1        0.0282
     12 C         143.5173  142.1385  165.0069 C.3     1  UNL1        0.0936
     13 N         143.7780  140.7206  164.5927 N.am    1  UNL1       -0.2795
     14 C         144.6551  140.4339  163.4101 C.2     1  UNL1        0.2261
     15 C         145.2716  141.5652  162.6417 C.3     1  UNL1        0.0948
     16 O         144.9158  139.0160  162.9959 O.2     1  UNL1       -0.2749
     17 C         143.1616  139.5894  165.3610 C.3     1  UNL1        0.0936
     18 C         142.2845  139.8760  166.5435 C.3     1  UNL1        0.0282
     19 C         138.7751  140.5970  165.1141 C.ar    1  UNL1       -0.0000
     20 C         137.9966  139.4669  165.7197 C.ar    1  UNL1       -0.0000
     21 C         138.2681  139.0413  167.1322 C.ar    1  UNL1       -0.0001
     22 C         139.3181  139.7459  167.9391 C.ar    1  UNL1        0.0017
     23 C         140.0966  140.8760  167.3334 C.ar    1  UNL1        0.0437
     24 C         139.8251  141.3016  165.9210 C.ar    1  UNL1        0.0017
     25 C         138.4474  142.8756  161.8813 C.ar    1  UNL1        0.1387
     26 C         137.9606  141.8739  160.8766 C.ar    1  UNL1        0.0369
     27 C         137.7454  140.4465  161.2843 C.ar    1  UNL1        0.0031
     28 C         138.0168  140.0209  162.6968 C.ar    1  UNL1        0.0002
     29 C         138.5036  141.0226  163.7015 C.ar    1  UNL1        0.0030
     30 C         138.7188  142.4500  163.2938 C.ar    1  UNL1        0.0369
     31 C         139.2947  145.2693  162.4310 C.3     1  UNL1        0.2525
     32 O         138.6626  144.3030  161.4736 O.3     1  UNL1       -0.4714
@<TRIPOS>BOND
     1    31    32    1
     2    32    25    1
     3    25    26   ar
     4    26    27   ar
     5    27    28   ar
     6    28    29   ar
     7    29    19    1
     8    19    20   ar
     9    20    21   ar
    10    21    22   ar
    11    22    23   ar
    12    23     1    1
    13     1    10    1
    14    10    11    1
    15    11    12    1
    16    12    13    1
    17    13    14   am
    18    14    15    1
    19    14    16    2
    20    13    17    1
    21    17    18    1
    22     1     2    1
    23     2     3    2
    24     3     4    1
    25     3     5    1
    26     5     6    1
    27     5     7    2
    28    23    24   ar
    29    29    30   ar
    30    30    25   ar
    31    24    19   ar
    32     7     1    1
    33    18    10    1
    34     6     8    1
    35     6     9    1
@<TRIPOS>MOLECULE
*****
 32 35 0 0 0
SMALL
GASTEIGER

@<TRIPOS>ATOM
      1 C         139.9596  140.8379  167.5147 C.3     1  UNL1        0.2766
      2 N         140.2071  142.0850  168.3106 N.2     1  UNL1       -0.2227
      3 C         140.1321  141.7287  169.7658 C.2     1  UNL1        0.1396
      4 C         140.3183  142.6738  170.9156 C.3     1  UNL1        0.0597
      5 C         139.8383  140.2614  169.8692 C.2     1  UNL1        0.3285
      6 N         139.6790  139.4816  171.1406 N.pl3   1  UNL1       -0.2454
      7 N         139.7317  139.7108  168.4780 N.2     1  UNL1       -0.0450
      8 H         139.7674  139.9346  172.0102 H       1  UNL1        0.2885
      9 H         139.4860  138.5168  171.1055 H       1  UNL1        0.2885
     10 C         140.1439  141.7438  166.3334 C.3     1  UNL1        0.0749
     11 C         138.9878  142.0330  165.4226 C.3     1  UNL1        0.0282
     12 C         139.1721  142.9389  164.2413 C.3     1  UNL1        0.0936
     13 N         140.5125  143.5556  163.9710 N.am    1  UNL1       -0.2795
     14 C         140.6968  144.4615  162.7897 C.2     1  UNL1        0.2261
     15 C         139.5406  144.7508  161.8788 C.3     1  UNL1        0.0948
     16 O         142.0371  145.0781  162.5193 O.2     1  UNL1       -0.2749
     17 C         141.6686  143.2664  164.8818 C.3     1  UNL1        0.0936
     18 C         141.4843  142.3605  166.0631 C.3     1  UNL1        0.0282
     19 C         140.4933  138.6084  164.2752 C.ar    1  UNL1       -0.0000
     20 C         139.3327  137.6648  164.3861 C.ar    1  UNL1       -0.0000
     21 C         138.3810  137.7787  165.5400 C.ar    1  UNL1       -0.0001
     22 C         138.5900  138.8365  166.5828 C.ar    1  UNL1        0.0017
     23 C         139.7507  139.7802  166.4718 C.ar    1  UNL1        0.0437
     24 C         140.7023  139.6662  165.3180 C.ar    1  UNL1        0.0017
     25 C         141.8686  138.2706  160.5678 C.ar    1  UNL1        0.1387
     26 C         143.3483  138.2665  160.8137 C.ar    1  UNL1        0.0369
     27 C         143.8764  138.3764  162.2133 C.ar    1  UNL1        0.0031
     28 C         142.9247  138.4904  163.3672 C.ar    1  UNL1        0.0002
     29 C         141.4451  138.4945  163.1213 C.ar    1  UNL1        0.0030
     30 C         140.9170  138.3845  161.7216 C.ar    1  UNL1        0.0369
     31 C         139.9310  138.5733  158.8638 C.3     1  UNL1        0.2525
     32 O         141.3406  138.1606  159.1681 O.3     1  UNL1       -0.4714
@<TRIPOS>BOND
     1    31    32    1
     2    32    25    1
     3    25    26   ar
     4    26    27   ar
     5    27    28   ar
     6    28    29   ar
     7    29    19    1
     8    19    20   ar
     9    20    21   ar
    10    21    22   ar
    11    22    23   ar
    12    23     1    1
    13     1    10    1
    14    10    11    1
    15    11    12    1
    16    12    13    1
    17    13    14   am
    18    14    15    1
    19    14    16    2
    20    13    17    1
    21    17    18    1
    22     1     2    1
    23     2     3    2
    24     3     4    1
    25     3     5    1
    26     5     6    1
    27     5     7    2
    28    23    24   ar
    29    29    30   ar
    30    30    25   ar
    31    24    19   ar
    32     7     1    1
    33    18    10    1
    34     6     8    1
    35     6     9    1
@<TRIPOS>MOLECULE
*****
 32 35 0 0 0
SMALL
GASTEIGER

@<TRIPOS>ATOM
      1 C         141.2869  139.9406  167.7419 C.3     1  UNL1        0.2766
      2 N         142.6066  139.7799  168.4366 N.2     1  UNL1       -0.2227
      3 C         142.3425  139.6385  169.9064 C.2     1  UNL1        0.1396
      4 C         143.3793  139.4559  170.9749 C.3     1  UNL1        0.0597
      5 C         140.8596  139.7119  170.1201 C.2     1  UNL1        0.3285
      6 N         140.1532  139.6155  171.4398 N.pl3   1  UNL1       -0.2454
      7 N         140.2072  139.8986  168.7824 N.2     1  UNL1       -0.0450
      8 H         140.6715  139.4925  172.2677 H       1  UNL1        0.2885
      9 H         139.1713  139.6752  171.4780 H       1  UNL1        0.2885
     10 C         142.1275  140.0196  166.5020 C.3     1  UNL1        0.0749
     11 C         142.0226  138.9502  165.4555 C.3     1  UNL1        0.0282
     12 C         142.8632  139.0293  164.2156 C.3     1  UNL1        0.0936
     13 N         143.8085  140.1777  164.0223 N.am    1  UNL1       -0.2795
     14 C         144.6490  140.2568  162.7825 C.2     1  UNL1        0.2261
     15 C         144.5442  139.1873  161.7358 C.3     1  UNL1        0.0948
     16 O         145.5944  141.4052  162.5892 O.2     1  UNL1       -0.2749
     17 C         143.9133  141.2471  165.0689 C.3     1  UNL1        0.0936
     18 C         143.0728  141.1681  166.3088 C.3     1  UNL1        0.0282
     19 C         138.9763  141.4684  164.9000 C.ar    1  UNL1       -0.0000
     20 C         137.8550  140.4723  164.8802 C.ar    1  UNL1       -0.0000
     21 C         137.8777  139.2988  165.8143 C.ar    1  UNL1       -0.0001
     22 C         139.0217  139.1216  166.7683 C.ar    1  UNL1        0.0017
     23 C         140.1430  140.1178  166.7880 C.ar    1  UNL1        0.0437
     24 C         140.1203  141.2912  165.8539 C.ar    1  UNL1        0.0017
     25 C         140.1030  144.0823  162.1344 C.ar    1  UNL1        0.1387
     26 C         138.9084  144.9886  162.0976 C.ar    1  UNL1        0.0369
     27 C         137.7364  144.7216  162.9949 C.ar    1  UNL1        0.0031
     28 C         137.7590  143.5482  163.9290 C.ar    1  UNL1        0.0002
     29 C         138.9536  142.6419  163.9658 C.ar    1  UNL1        0.0030
     30 C         140.1256  142.9089  163.0685 C.ar    1  UNL1        0.0369
     31 C         141.1131  145.2304  160.0340 C.3     1  UNL1        0.2525
     32 O         141.2750  144.3493  161.2372 O.3     1  UNL1       -0.4714
@<TRIPOS>BOND
     1    31    32    1
     2    32    25    1
     3    25    26   ar
     4    26    27   ar
     5    27    28   ar
     6    28    29   ar
     7    29    19    1
     8    19    20   ar
     9    20    21   ar
    10    21    22   ar
    11    22    23   ar
    12    23     1    1
    13     1    10    1
    14    10    11    1
    15    11    12    1
    16    12    13    1
    17    13    14   am
    18    14    15    1
    19    14    16    2
    20    13    17    1
    21    17    18    1
    22     1     2    1
    23     2     3    2
    24     3     4    1
    25     3     5    1
    26     5     6    1
    27     5     7    2
    28    23    24   ar
    29    29    30   ar
    30    30    25   ar
    31    24    19   ar
    32     7     1    1
    33    18    10    1
    34     6     8    1
    35     6     9    1
@<TRIPOS>MOLECULE
*****
 32 35 0 0 0
SMALL
GASTEIGER

@<TRIPOS>ATOM
      1 C         140.2494  140.6675  167.1596 C.3     1  UNL1        0.2766
      2 N         140.9177  141.5524  168.1697 N.2     1  UNL1       -0.2227
      3 C         140.2293  141.3536  169.4876 C.2     1  UNL1        0.1396
      4 C         140.5741  142.0418  170.7750 C.3     1  UNL1        0.0597
      5 C         139.1356  140.3460  169.2919 C.2     1  UNL1        0.3285
      6 N         138.1946  139.8495  170.3493 N.pl3   1  UNL1       -0.2454
      7 N         139.1480  139.9219  167.8531 N.2     1  UNL1       -0.0450
      8 H         138.2657  140.1896  171.2705 H       1  UNL1        0.2885
      9 H         137.5060  139.1837  170.1222 H       1  UNL1        0.2885
     10 C         141.2551  141.2538  166.2136 C.3     1  UNL1        0.0749
     11 C         141.1061  142.6705  165.7441 C.3     1  UNL1        0.0282
     12 C         142.1118  143.2568  164.7980 C.3     1  UNL1        0.0936
     13 N         143.2664  142.4262  164.3215 N.am    1  UNL1       -0.2795
     14 C         144.2720  143.0124  163.3755 C.2     1  UNL1        0.2261
     15 C         144.1231  144.4293  162.9059 C.3     1  UNL1        0.0948
     16 O         145.4266  142.1819  162.8989 O.2     1  UNL1       -0.2749
     17 C         143.4153  141.0094  164.7910 C.3     1  UNL1        0.0936
     18 C         142.4097  140.4232  165.7370 C.3     1  UNL1        0.0282
     19 C         139.1008  139.8609  163.4475 C.ar    1  UNL1       -0.0000
     20 C         138.8752  138.3806  163.5359 C.ar    1  UNL1       -0.0000
     21 C         139.1077  137.6626  164.8322 C.ar    1  UNL1       -0.0001
     22 C         139.5658  138.4249  166.0401 C.ar    1  UNL1        0.0017
     23 C         139.7914  139.9052  165.9517 C.ar    1  UNL1        0.0437
     24 C         139.5589  140.6232  164.6554 C.ar    1  UNL1        0.0017
     25 C         139.0250  142.7390  160.7160 C.ar    1  UNL1        0.1387
     26 C         138.4034  142.0150  159.5586 C.ar    1  UNL1        0.0369
     27 C         138.0142  140.5731  159.6975 C.ar    1  UNL1        0.0031
     28 C         138.2467  139.8550  160.9938 C.ar    1  UNL1        0.0002
     29 C         138.8683  140.5789  162.1511 C.ar    1  UNL1        0.0030
     30 C         139.2575  142.0209  162.0122 C.ar    1  UNL1        0.0369
     31 C         140.1936  144.6353  159.3788 C.3     1  UNL1        0.2525
     32 O         139.4142  144.1809  160.5771 O.3     1  UNL1       -0.4714
@<TRIPOS>BOND
     1    31    32    1
     2    32    25    1
     3    25    26   ar
     4    26    27   ar
     5    27    28   ar
     6    28    29   ar
     7    29    19    1
     8    19    20   ar
     9    20    21   ar
    10    21    22   ar
    11    22    23   ar
    12    23     1    1
    13     1    10    1
    14    10    11    1
    15    11    12    1
    16    12    13    1
    17    13    14   am
    18    14    15    1
    19    14    16    2
    20    13    17    1
    21    17    18    1
    22     1     2    1
    23     2     3    2
    24     3     4    1
    25     3     5    1
    26     5     6    1
    27     5     7    2
    28    23    24   ar
    29    29    30   ar
    30    30    25   ar
    31    24    19   ar
    32     7     1    1
    33    18    10    1
    34     6     8    1
    35     6     9    1
