@<TRIPOS>MOLECULE
*****
 32 35 0 0 0
SMALL
GASTEIGER

@<TRIPOS>ATOM
      1 C         138.0728  140.4649  162.5761 C.3     1  UNL1        0.1166
      2 N         136.8189  141.2136  162.9182 N.3     1  UNL1       -0.3162
      3 C         139.3691  139.7311  162.7530 C.3     1  UNL1        0.0739
      4 C         140.1081  139.2146  161.5543 C.3     1  UNL1        0.2039
      5 N         139.5509  139.4318  160.1786 N.pl3   1  UNL1       -0.1931
      6 C         138.2547  140.1656  160.0017 C.3     1  UNL1        0.2039
      7 C         137.5157  140.6821  161.2005 C.3     1  UNL1        0.0739
      8 H         136.7557  141.3265  163.9300 H       1  UNL1        0.1192
      9 H         136.0092  140.6916  162.5831 H       1  UNL1        0.1192
     10 C         140.2900  138.9152  158.9799 C.2     1  UNL1        0.3205
     11 N         139.6141  137.9688  158.0325 N.2     1  UNL1        0.0097
     12 C         140.3531  137.4522  156.8339 C.2     1  UNL1        0.4717
     13 N         141.7681  137.8820  156.5824 N.2     1  UNL1        0.0158
     14 C         142.4440  138.8284  157.5298 C.2     1  UNL1        0.3714
     15 N         143.8204  139.4244  157.5415 N.2     1  UNL1       -0.0339
     16 C         143.9321  140.3094  158.7475 C.2     1  UNL1        0.2323
     17 C         142.6246  140.2603  159.4811 C.2     1  UNL1        0.0486
     18 C         141.7049  139.3450  158.7285 C.3     1  UNL1        0.2428
     19 N         138.6093  139.2791  164.8246 N.am    1  UNL1       -0.3012
     20 C         138.1946  140.5077  164.0706 C.2     1  UNL1        0.2352
     21 O         137.9018  141.7789  164.8109 O.2     1  UNL1       -0.2737
     22 H         138.8015  138.4447  164.3387 H       1  UNL1        0.1497
     23 C         138.7311  139.3217  166.3191 C.3     1  UNL1        0.0941
     24 C         139.8885  140.0310  166.9573 C.ar    1  UNL1       -0.0045
     25 C         139.7562  140.5840  168.3454 C.ar    1  UNL1       -0.0018
     26 C         140.9137  141.2932  168.9836 C.ar    1  UNL1        0.0111
     27 C         142.2033  141.4495  168.2336 C.ar    1  UNL1        0.0577
     28 CL        143.3608  142.1587  168.8719 Cl      1  UNL1       -0.0822
     29 C         142.3356  140.8965  166.8456 C.ar    1  UNL1        0.0111
     30 C         141.1782  140.1872  166.2074 C.ar    1  UNL1       -0.0018
     31 C         137.3642  137.2078  166.9617 C.3     1  UNL1        0.0021
     32 C         137.6954  138.6551  167.1753 C.3     1  UNL1        0.0241
@<TRIPOS>BOND
     1    31    32    1
     2    32    23    1
     3    23    19    1
     4    19    20   am
     5    20    21    2
     6    20     1    1
     7     1     2    1
     8     1     3    1
     9     3     4    1
    10     4     5    1
    11     5    10    1
    12    10    11    2
    13    11    12    1
    14    12    13    2
    15    13    14    1
    16    14    15    2
    17    15    16    1
    18    16    17    2
    19    17    18    1
    20     5     6    1
    21     6     7    1
    22    23    24    1
    23    24    25   ar
    24    25    26   ar
    25    26    27   ar
    26    27    28    1
    27    27    29   ar
    28    29    30   ar
    29     7     1    1
    30    30    24   ar
    31    18    10    1
    32    18    14    1
    33    19    22    1
    34     2     8    1
    35     2     9    1
@<TRIPOS>MOLECULE
*****
 32 35 0 0 0
SMALL
GASTEIGER

@<TRIPOS>ATOM
      1 C         141.6577  144.8614  162.7050 C.3     1  UNL1        0.1166
      2 N         141.2786  145.4522  164.0305 N.3     1  UNL1       -0.3162
      3 C         142.3942  144.0453  161.6843 C.3     1  UNL1        0.0739
      4 C         141.9702  144.0829  160.2461 C.3     1  UNL1        0.2039
      5 N         140.8096  144.9366  159.8283 N.pl3   1  UNL1       -0.1931
      6 C         140.0731  145.7526  160.8489 C.3     1  UNL1        0.2039
      7 C         140.4972  145.7150  162.2873 C.3     1  UNL1        0.0739
      8 H         141.9053  145.0972  164.7527 H       1  UNL1        0.1192
      9 H         140.3182  145.1929  164.2562 H       1  UNL1        0.1192
     10 C         140.3855  144.9741  158.3900 C.2     1  UNL1        0.3205
     11 N         140.8976  146.0553  157.4851 N.2     1  UNL1        0.0097
     12 C         140.4736  146.0929  156.0469 C.2     1  UNL1        0.4717
     13 N         139.5375  145.0492  155.5133 N.2     1  UNL1        0.0158
     14 C         139.0254  143.9681  156.4182 C.2     1  UNL1        0.3714
     15 N         138.0991  142.8130  156.1777 N.2     1  UNL1       -0.0339
     16 C         137.9507  142.0616  157.4674 C.2     1  UNL1        0.2323
     17 C         138.7852  142.7522  158.5050 C.2     1  UNL1        0.0486
     18 C         139.4494  143.9305  157.8566 C.3     1  UNL1        0.2428
     19 N         142.6997  142.7220  163.7476 N.am    1  UNL1       -0.3012
     20 C         142.6866  144.2129  163.5830 C.2     1  UNL1        0.2352
     21 O         143.7023  145.0553  164.2963 O.2     1  UNL1       -0.2737
     22 H         142.0331  142.1692  163.2795 H       1  UNL1        0.1497
     23 C         143.7286  142.0735  164.6257 C.3     1  UNL1        0.0941
     24 C         143.3111  141.4022  165.9004 C.ar    1  UNL1       -0.0045
     25 C         143.1378  139.9128  165.9418 C.ar    1  UNL1       -0.0018
     26 C         142.7203  139.2414  167.2165 C.ar    1  UNL1        0.0111
     27 C         142.4760  140.0596  168.4498 C.ar    1  UNL1        0.0577
     28 CL        142.0584  139.3882  169.7246 Cl      1  UNL1       -0.0822
     29 C         142.6492  141.5489  168.4085 C.ar    1  UNL1        0.0111
     30 C         143.0668  142.2203  167.1337 C.ar    1  UNL1       -0.0018
     31 C         145.5670  141.8231  162.8069 C.3     1  UNL1        0.0021
     32 C         145.1750  142.0963  164.2288 C.3     1  UNL1        0.0241
@<TRIPOS>BOND
     1    31    32    1
     2    32    23    1
     3    23    19    1
     4    19    20   am
     5    20    21    2
     6    20     1    1
     7     1     2    1
     8     1     3    1
     9     3     4    1
    10     4     5    1
    11     5    10    1
    12    10    11    2
    13    11    12    1
    14    12    13    2
    15    13    14    1
    16    14    15    2
    17    15    16    1
    18    16    17    2
    19    17    18    1
    20     5     6    1
    21     6     7    1
    22    23    24    1
    23    24    25   ar
    24    25    26   ar
    25    26    27   ar
    26    27    28    1
    27    27    29   ar
    28    29    30   ar
    29     7     1    1
    30    30    24   ar
    31    18    10    1
    32    18    14    1
    33    19    22    1
    34     2     8    1
    35     2     9    1
@<TRIPOS>MOLECULE
*****
 32 35 0 0 0
SMALL
GASTEIGER

@<TRIPOS>ATOM
      1 C         139.7437  138.8152  162.5335 C.3     1  UNL1        0.1166
      2 N         138.7851  137.6616  162.5297 N.3     1  UNL1       -0.3162
      3 C         140.6661  139.8798  163.0492 C.3     1  UNL1        0.0739
      4 C         141.3599  140.8004  162.0895 C.3     1  UNL1        0.2039
      5 N         141.1313  140.6565  160.6140 N.pl3   1  UNL1       -0.1931
      6 C         140.2090  139.5920  160.0982 C.3     1  UNL1        0.2039
      7 C         139.5152  138.6713  161.0580 C.3     1  UNL1        0.0739
      8 H         138.6083  137.3633  163.4889 H       1  UNL1        0.1192
      9 H         139.1872  136.8871  162.0015 H       1  UNL1        0.1192
     10 C         141.8251  141.5771  159.6542 C.2     1  UNL1        0.3205
     11 N         142.7907  141.0233  158.6488 N.2     1  UNL1        0.0097
     12 C         143.4845  141.9438  157.6891 C.2     1  UNL1        0.4717
     13 N         143.2128  143.4184  157.7348 N.2     1  UNL1        0.0158
     14 C         142.2473  143.9722  158.7403 C.2     1  UNL1        0.3714
     15 N         141.7823  145.3705  159.0209 N.2     1  UNL1       -0.0339
     16 C         140.8012  145.3140  160.1541 C.2     1  UNL1        0.2323
     17 C         140.6597  143.8808  160.5738 C.2     1  UNL1        0.0486
     18 C         141.5534  143.0516  159.7000 C.3     1  UNL1        0.2428
     19 N         139.0010  139.5786  164.9031 N.am    1  UNL1       -0.3012
     20 C         139.6394  138.5585  164.0076 C.2     1  UNL1        0.2352
     21 O         140.1734  137.2818  164.5863 O.2     1  UNL1       -0.2737
     22 H         138.6505  140.4166  164.5233 H       1  UNL1        0.1497
     23 C         138.8967  139.3220  166.3774 C.3     1  UNL1        0.0941
     24 C         140.0020  139.7552  167.2941 C.ar    1  UNL1       -0.0045
     25 C         141.4207  139.7634  166.8069 C.ar    1  UNL1       -0.0018
     26 C         142.5260  140.1966  167.7236 C.ar    1  UNL1        0.0111
     27 C         142.2127  140.6216  169.1277 C.ar    1  UNL1        0.0577
     28 CL        143.3182  141.0548  170.0444 Cl      1  UNL1       -0.0822
     29 C         140.7941  140.6134  169.6149 C.ar    1  UNL1        0.0111
     30 C         139.6887  140.1802  168.6981 C.ar    1  UNL1       -0.0018
     31 C         137.5259  137.1500  166.7691 C.3     1  UNL1        0.0021
     32 C         137.6869  138.6321  166.9347 C.3     1  UNL1        0.0241
@<TRIPOS>BOND
     1    31    32    1
     2    32    23    1
     3    23    19    1
     4    19    20   am
     5    20    21    2
     6    20     1    1
     7     1     2    1
     8     1     3    1
     9     3     4    1
    10     4     5    1
    11     5    10    1
    12    10    11    2
    13    11    12    1
    14    12    13    2
    15    13    14    1
    16    14    15    2
    17    15    16    1
    18    16    17    2
    19    17    18    1
    20     5     6    1
    21     6     7    1
    22    23    24    1
    23    24    25   ar
    24    25    26   ar
    25    26    27   ar
    26    27    28    1
    27    27    29   ar
    28    29    30   ar
    29     7     1    1
    30    30    24   ar
    31    18    10    1
    32    18    14    1
    33    19    22    1
    34     2     8    1
    35     2     9    1
@<TRIPOS>MOLECULE
*****
 32 35 0 0 0
SMALL
GASTEIGER

@<TRIPOS>ATOM
      1 C         138.5041  140.9518  162.6737 C.3     1  UNL1        0.1166
      2 N         137.0255  141.0035  162.9207 N.3     1  UNL1       -0.3162
      3 C         139.9759  140.8502  162.9452 C.3     1  UNL1        0.0739
      4 C         140.9539  140.9105  161.8096 C.3     1  UNL1        0.2039
      5 N         140.4602  141.0726  160.4024 N.pl3   1  UNL1       -0.1931
      6 C         138.9885  141.1743  160.1309 C.3     1  UNL1        0.2039
      7 C         138.0105  141.1139  161.2666 C.3     1  UNL1        0.0739
      8 H         136.8446  140.9155  163.9207 H       1  UNL1        0.1192
      9 H         136.5709  140.2372  162.4242 H       1  UNL1        0.1192
     10 C         141.4383  141.1330  159.2667 C.2     1  UNL1        0.3205
     11 N         141.8373  142.4591  158.6902 N.2     1  UNL1        0.0097
     12 C         142.8153  142.5195  157.5546 C.2     1  UNL1        0.4717
     13 N         143.3945  141.2538  156.9954 N.2     1  UNL1        0.0158
     14 C         142.9955  139.9278  157.5719 C.2     1  UNL1        0.3714
     15 N         143.3967  138.5233  157.2304 N.2     1  UNL1       -0.0339
     16 C         142.6665  137.5949  158.1550 C.2     1  UNL1        0.2323
     17 C         141.8141  138.4256  159.0679 C.2     1  UNL1        0.0486
     18 C         142.0174  139.8674  158.7075 C.3     1  UNL1        0.2428
     19 N         138.8926  139.5108  164.8003 N.am    1  UNL1       -0.3012
     20 C         138.4843  140.8077  164.1667 C.2     1  UNL1        0.2352
     21 O         138.0563  141.9603  165.0259 O.2     1  UNL1       -0.2737
     22 H         139.1736  138.7543  164.2363 H       1  UNL1        0.1497
     23 C         138.8729  139.3666  166.2932 C.3     1  UNL1        0.0941
     24 C         140.0038  139.9112  167.1144 C.ar    1  UNL1       -0.0045
     25 C         141.3719  140.0421  166.5133 C.ar    1  UNL1       -0.0018
     26 C         142.5029  140.5867  167.3344 C.ar    1  UNL1        0.0111
     27 C         142.2658  141.0004  168.7566 C.ar    1  UNL1        0.0577
     28 CL        143.3968  141.5450  169.5777 Cl      1  UNL1       -0.0822
     29 C         140.8978  140.8695  169.3577 C.ar    1  UNL1        0.0111
     30 C         139.7667  140.3249  168.5366 C.ar    1  UNL1       -0.0018
     31 C         137.5225  137.2020  166.7844 C.3     1  UNL1        0.0021
     32 C         137.7221  138.6777  166.9650 C.3     1  UNL1        0.0241
@<TRIPOS>BOND
     1    31    32    1
     2    32    23    1
     3    23    19    1
     4    19    20   am
     5    20    21    2
     6    20     1    1
     7     1     2    1
     8     1     3    1
     9     3     4    1
    10     4     5    1
    11     5    10    1
    12    10    11    2
    13    11    12    1
    14    12    13    2
    15    13    14    1
    16    14    15    2
    17    15    16    1
    18    16    17    2
    19    17    18    1
    20     5     6    1
    21     6     7    1
    22    23    24    1
    23    24    25   ar
    24    25    26   ar
    25    26    27   ar
    26    27    28    1
    27    27    29   ar
    28    29    30   ar
    29     7     1    1
    30    30    24   ar
    31    18    10    1
    32    18    14    1
    33    19    22    1
    34     2     8    1
    35     2     9    1
@<TRIPOS>MOLECULE
*****
 32 35 0 0 0
SMALL
GASTEIGER

@<TRIPOS>ATOM
      1 C         140.1923  144.4013  163.3018 C.3     1  UNL1        0.1166
      2 N         139.5716  145.1680  164.4317 N.3     1  UNL1       -0.3162
      3 C         140.9039  143.3053  162.5652 C.3     1  UNL1        0.0739
      4 C         141.1386  143.4237  161.0885 C.3     1  UNL1        0.2039
      5 N         140.6616  144.6381  160.3482 N.pl3   1  UNL1       -0.1931
      6 C         139.9501  145.7340  161.0847 C.3     1  UNL1        0.2039
      7 C         139.7154  145.6156  162.5616 C.3     1  UNL1        0.0739
      8 H         139.6711  144.6379  165.2974 H       1  UNL1        0.1192
      9 H         138.5817  145.3184  164.2371 H       1  UNL1        0.1192
     10 C         140.8963  144.7564  158.8714 C.2     1  UNL1        0.3205
     11 N         141.9875  145.6463  158.3543 N.2     1  UNL1        0.0097
     12 C         142.2222  145.7646  156.8776 C.2     1  UNL1        0.4717
     13 N         141.3656  144.9931  155.9178 N.2     1  UNL1        0.0158
     14 C         140.2744  144.1033  156.4348 C.2     1  UNL1        0.3714
     15 N         139.2774  143.2276  155.7354 N.2     1  UNL1       -0.0339
     16 C         138.4266  142.5680  156.7799 C.2     1  UNL1        0.2323
     17 C         138.8977  143.0361  158.1249 C.2     1  UNL1        0.0486
     18 C         140.0397  143.9849  157.9116 C.3     1  UNL1        0.2428
     19 N         141.2202  142.1871  164.1908 N.am    1  UNL1       -0.3012
     20 C         140.4537  143.4532  164.4344 C.2     1  UNL1        0.2352
     21 O         139.9486  143.7712  165.8105 O.2     1  UNL1       -0.2737
     22 H         141.5517  141.9784  163.2875 H       1  UNL1        0.1497
     23 C         141.4816  141.2389  165.3233 C.3     1  UNL1        0.0941
     24 C         140.4060  140.2964  165.7759 C.ar    1  UNL1       -0.0045
     25 C         139.7391  140.5015  167.1038 C.ar    1  UNL1       -0.0018
     26 C         138.6635  139.5590  167.5564 C.ar    1  UNL1        0.0111
     27 C         138.2548  138.4115  166.6810 C.ar    1  UNL1        0.0577
     28 CL        137.1791  137.4691  167.1337 Cl      1  UNL1       -0.0822
     29 C         138.9216  138.2065  165.3532 C.ar    1  UNL1        0.0111
     30 C         139.9973  139.1489  164.9005 C.ar    1  UNL1       -0.0018
     31 C         143.0799  142.1621  167.1518 C.3     1  UNL1        0.0021
     32 C         142.8187  141.2332  166.0033 C.3     1  UNL1        0.0241
@<TRIPOS>BOND
     1    31    32    1
     2    32    23    1
     3    23    19    1
     4    19    20   am
     5    20    21    2
     6    20     1    1
     7     1     2    1
     8     1     3    1
     9     3     4    1
    10     4     5    1
    11     5    10    1
    12    10    11    2
    13    11    12    1
    14    12    13    2
    15    13    14    1
    16    14    15    2
    17    15    16    1
    18    16    17    2
    19    17    18    1
    20     5     6    1
    21     6     7    1
    22    23    24    1
    23    24    25   ar
    24    25    26   ar
    25    26    27   ar
    26    27    28    1
    27    27    29   ar
    28    29    30   ar
    29     7     1    1
    30    30    24   ar
    31    18    10    1
    32    18    14    1
    33    19    22    1
    34     2     8    1
    35     2     9    1
@<TRIPOS>MOLECULE
*****
 32 35 0 0 0
SMALL
GASTEIGER

@<TRIPOS>ATOM
      1 C         141.3507  143.6511  163.4762 C.3     1  UNL1        0.1166
      2 N         140.8608  144.1660  164.7970 N.3     1  UNL1       -0.3162
      3 C         142.0487  142.7804  162.4737 C.3     1  UNL1        0.0739
      4 C         141.9775  143.1130  161.0129 C.3     1  UNL1        0.2039
      5 N         141.2083  144.3164  160.5543 N.pl3   1  UNL1       -0.1931
      6 C         140.5103  145.1872  161.5566 C.3     1  UNL1        0.2039
      7 C         140.5816  144.8544  163.0176 C.3     1  UNL1        0.0739
      8 H         141.1950  143.5575  165.5443 H       1  UNL1        0.1192
      9 H         139.8408  144.1790  164.7997 H       1  UNL1        0.1192
     10 C         141.1372  144.6491  159.0934 C.2     1  UNL1        0.3205
     11 N         142.1115  145.6213  158.4972 N.2     1  UNL1        0.0097
     12 C         142.0403  145.9540  157.0364 C.2     1  UNL1        0.4717
     13 N         140.9948  145.3144  156.1715 N.2     1  UNL1        0.0158
     14 C         140.0205  144.3421  156.7677 C.2     1  UNL1        0.3714
     15 N         138.8895  143.5598  156.1687 N.2     1  UNL1       -0.0339
     16 C         138.2616  142.7437  157.2594 C.2     1  UNL1        0.2323
     17 C         139.0046  143.0216  158.5325 C.2     1  UNL1        0.0486
     18 C         140.0917  144.0095  158.2286 C.3     1  UNL1        0.2428
     19 N         141.4754  141.2044  164.3410 N.am    1  UNL1       -0.3012
     20 C         141.9497  142.6265  164.3934 C.2     1  UNL1        0.2352
     21 O         143.0230  143.0239  165.3630 O.2     1  UNL1       -0.2737
     22 H         140.7709  140.9436  163.7046 H       1  UNL1        0.1497
     23 C         142.0744  140.1797  165.2583 C.3     1  UNL1        0.0941
     24 C         141.6144  140.0884  166.6831 C.ar    1  UNL1       -0.0045
     25 C         142.5909  139.7339  167.7652 C.ar    1  UNL1       -0.0018
     26 C         142.1309  139.6426  169.1899 C.ar    1  UNL1        0.0111
     27 C         140.6944  139.9056  169.5326 C.ar    1  UNL1        0.0577
     28 CL        140.2345  139.8142  170.9575 Cl      1  UNL1       -0.0822
     29 C         139.7180  140.2600  168.4506 C.ar    1  UNL1        0.0111
     30 C         140.1779  140.3514  167.0257 C.ar    1  UNL1       -0.0018
     31 C         144.4119  139.7962  164.1910 C.3     1  UNL1        0.0021
     32 C         143.1333  139.2465  164.7506 C.3     1  UNL1        0.0241
@<TRIPOS>BOND
     1    31    32    1
     2    32    23    1
     3    23    19    1
     4    19    20   am
     5    20    21    2
     6    20     1    1
     7     1     2    1
     8     1     3    1
     9     3     4    1
    10     4     5    1
    11     5    10    1
    12    10    11    2
    13    11    12    1
    14    12    13    2
    15    13    14    1
    16    14    15    2
    17    15    16    1
    18    16    17    2
    19    17    18    1
    20     5     6    1
    21     6     7    1
    22    23    24    1
    23    24    25   ar
    24    25    26   ar
    25    26    27   ar
    26    27    28    1
    27    27    29   ar
    28    29    30   ar
    29     7     1    1
    30    30    24   ar
    31    18    10    1
    32    18    14    1
    33    19    22    1
    34     2     8    1
    35     2     9    1
@<TRIPOS>MOLECULE
*****
 32 35 0 0 0
SMALL
GASTEIGER

@<TRIPOS>ATOM
      1 C         139.6210  144.2312  163.0529 C.3     1  UNL1        0.1166
      2 N         139.5316  145.1852  164.2069 N.3     1  UNL1       -0.3162
      3 C         139.5245  142.9577  162.2660 C.3     1  UNL1        0.0739
      4 C         139.9322  142.9352  160.8228 C.3     1  UNL1        0.2039
      5 N         140.4363  144.1861  160.1662 N.pl3   1  UNL1       -0.1931
      6 C         140.5328  145.4596  160.9529 C.3     1  UNL1        0.2039
      7 C         140.1251  145.4821  162.3963 C.3     1  UNL1        0.0739
      8 H         139.1730  144.6950  165.0263 H       1  UNL1        0.1192
      9 H         138.9024  145.9513  163.9667 H       1  UNL1        0.1192
     10 C         140.8440  144.1636  158.7228 C.2     1  UNL1        0.3205
     11 N         139.9316  144.7321  157.6768 N.2     1  UNL1        0.0097
     12 C         140.3392  144.7095  156.2335 C.2     1  UNL1        0.4717
     13 N         141.6594  144.1184  155.8361 N.2     1  UNL1        0.0158
     14 C         142.5718  143.5499  156.8821 C.2     1  UNL1        0.3714
     15 N         143.9237  142.9062  156.7922 N.2     1  UNL1       -0.0339
     16 C         144.3515  142.5309  158.1801 C.2     1  UNL1        0.2323
     17 C         143.2641  142.9427  159.1277 C.2     1  UNL1        0.0486
     18 C         142.1642  143.5725  158.3255 C.3     1  UNL1        0.2428
     19 N         139.8595  142.0874  164.5010 N.am    1  UNL1       -0.3012
     20 C         139.0857  143.3116  164.1102 C.2     1  UNL1        0.2352
     21 O         137.7769  143.6161  164.7766 O.2     1  UNL1       -0.2737
     22 H         140.7186  141.8876  164.0636 H       1  UNL1        0.1497
     23 C         139.3244  141.1677  165.5583 C.3     1  UNL1        0.0941
     24 C         139.8198  141.2788  166.9697 C.ar    1  UNL1       -0.0045
     25 C         140.5407  142.5161  167.4164 C.ar    1  UNL1       -0.0018
     26 C         141.0361  142.6272  168.8278 C.ar    1  UNL1        0.0111
     27 C         140.8107  141.5010  169.7926 C.ar    1  UNL1        0.0577
     28 CL        141.3062  141.6122  171.2041 Cl      1  UNL1       -0.0822
     29 C         140.0898  140.2638  169.3460 C.ar    1  UNL1        0.0111
     30 C         139.5944  140.1526  167.9345 C.ar    1  UNL1       -0.0018
     31 C         138.7106  138.8547  164.5468 C.3     1  UNL1        0.0021
     32 C         138.2938  140.1370  165.2041 C.3     1  UNL1        0.0241
@<TRIPOS>BOND
     1    31    32    1
     2    32    23    1
     3    23    19    1
     4    19    20   am
     5    20    21    2
     6    20     1    1
     7     1     2    1
     8     1     3    1
     9     3     4    1
    10     4     5    1
    11     5    10    1
    12    10    11    2
    13    11    12    1
    14    12    13    2
    15    13    14    1
    16    14    15    2
    17    15    16    1
    18    16    17    2
    19    17    18    1
    20     5     6    1
    21     6     7    1
    22    23    24    1
    23    24    25   ar
    24    25    26   ar
    25    26    27   ar
    26    27    28    1
    27    27    29   ar
    28    29    30   ar
    29     7     1    1
    30    30    24   ar
    31    18    10    1
    32    18    14    1
    33    19    22    1
    34     2     8    1
    35     2     9    1
@<TRIPOS>MOLECULE
*****
 32 35 0 0 0
SMALL
GASTEIGER

@<TRIPOS>ATOM
      1 C         144.3256  141.0391  162.9704 C.3     1  UNL1        0.1166
      2 N         145.3064  141.2208  164.0905 N.3     1  UNL1       -0.3162
      3 C         143.1612  140.5066  162.1888 C.3     1  UNL1        0.0739
      4 C         142.8657  141.0472  160.8213 C.3     1  UNL1        0.2039
      5 N         143.7345  142.1205  160.2351 N.pl3   1  UNL1       -0.1931
      6 C         144.8988  142.6530  161.0167 C.3     1  UNL1        0.2039
      7 C         145.1943  142.1122  162.3843 C.3     1  UNL1        0.0739
      8 H         145.0741  140.5839  164.8526 H       1  UNL1        0.1192
      9 H         145.2643  142.1829  164.4266 H       1  UNL1        0.1192
     10 C         143.4390  142.6612  158.8675 C.2     1  UNL1        0.3205
     11 N         144.1741  142.1261  157.6745 N.2     1  UNL1        0.0097
     12 C         143.8786  142.6667  156.3070 C.2     1  UNL1        0.4717
     13 N         142.8478  143.7425  156.1323 N.2     1  UNL1        0.0158
     14 C         142.1127  144.2775  157.3253 C.2     1  UNL1        0.3714
     15 N         141.0517  145.3290  157.4619 N.2     1  UNL1       -0.0339
     16 C         140.6916  145.4382  158.9139 C.2     1  UNL1        0.2323
     17 C         141.5299  144.4542  159.6747 C.2     1  UNL1        0.0486
     18 C         142.4082  143.7368  158.6929 C.3     1  UNL1        0.2428
     19 N         142.3252  139.9527  164.2225 N.am    1  UNL1       -0.3012
     20 C         143.7974  140.0290  163.9454 C.2     1  UNL1        0.2352
     21 O         144.7413  139.0952  164.6433 O.2     1  UNL1       -0.2737
     22 H         141.7056  140.5656  163.7645 H       1  UNL1        0.1497
     23 C         141.7969  138.9426  165.1976 C.3     1  UNL1        0.0941
     24 C         141.5504  139.3349  166.6242 C.ar    1  UNL1       -0.0045
     25 C         142.6615  139.2494  167.6283 C.ar    1  UNL1       -0.0018
     26 C         142.4149  139.6417  169.0549 C.ar    1  UNL1        0.0111
     27 C         141.0573  140.1196  169.4774 C.ar    1  UNL1        0.0577
     28 CL        140.8108  140.5119  170.9042 Cl      1  UNL1       -0.0822
     29 C         139.9462  140.2051  168.4734 C.ar    1  UNL1        0.0111
     30 C         140.1927  139.8128  167.0467 C.ar    1  UNL1       -0.0018
     31 C         140.9962  137.2882  163.3613 C.3     1  UNL1        0.0021
     32 C         141.5152  137.5402  164.7459 C.3     1  UNL1        0.0241
@<TRIPOS>BOND
     1    31    32    1
     2    32    23    1
     3    23    19    1
     4    19    20   am
     5    20    21    2
     6    20     1    1
     7     1     2    1
     8     1     3    1
     9     3     4    1
    10     4     5    1
    11     5    10    1
    12    10    11    2
    13    11    12    1
    14    12    13    2
    15    13    14    1
    16    14    15    2
    17    15    16    1
    18    16    17    2
    19    17    18    1
    20     5     6    1
    21     6     7    1
    22    23    24    1
    23    24    25   ar
    24    25    26   ar
    25    26    27   ar
    26    27    28    1
    27    27    29   ar
    28    29    30   ar
    29     7     1    1
    30    30    24   ar
    31    18    10    1
    32    18    14    1
    33    19    22    1
    34     2     8    1
    35     2     9    1
@<TRIPOS>MOLECULE
*****
 32 35 0 0 0
SMALL
GASTEIGER

@<TRIPOS>ATOM
      1 C         142.0793  142.3718  164.1354 C.3     1  UNL1        0.1166
      2 N         142.9253  143.1186  163.1472 N.3     1  UNL1       -0.3162
      3 C         140.9338  141.5844  164.6993 C.3     1  UNL1        0.0739
      4 C         140.9445  141.1731  166.1417 C.3     1  UNL1        0.2039
      5 N         142.1008  141.5490  167.0203 N.pl3   1  UNL1       -0.1931
      6 C         143.2463  142.3364  166.4564 C.3     1  UNL1        0.2039
      7 C         143.2355  142.7477  165.0139 C.3     1  UNL1        0.0739
      8 H         142.4600  143.1276  162.2396 H       1  UNL1        0.1192
      9 H         143.8318  142.6593  163.0601 H       1  UNL1        0.1192
     10 C         142.1115  141.1376  168.4627 C.2     1  UNL1        0.3205
     11 N         142.9407  139.9677  168.9029 N.2     1  UNL1        0.0097
     12 C         142.9514  139.5563  170.3452 C.2     1  UNL1        0.4717
     13 N         142.1328  140.3148  171.3476 N.2     1  UNL1        0.0158
     14 C         141.3036  141.4847  170.9075 C.2     1  UNL1        0.3714
     15 N         140.4021  142.4164  171.6620 N.2     1  UNL1       -0.0339
     16 C         139.8343  143.4036  170.6858 C.2     1  UNL1        0.2323
     17 C         140.3848  143.0821  169.3281 C.2     1  UNL1        0.0486
     18 C         141.2929  141.8961  169.4651 C.3     1  UNL1        0.2428
     19 N         140.2873  143.3724  162.5426 N.am    1  UNL1       -0.3012
     20 C         141.2169  142.2552  162.9137 C.2     1  UNL1        0.2352
     21 O         141.2841  141.0215  162.0631 O.2     1  UNL1       -0.2737
     22 H         140.2433  144.1821  163.1008 H       1  UNL1        0.1497
     23 C         139.4248  143.2559  161.3208 C.3     1  UNL1        0.0941
     24 C         139.8841  143.8441  160.0197 C.ar    1  UNL1       -0.0045
     25 C         139.3707  143.2904  158.7235 C.ar    1  UNL1       -0.0018
     26 C         139.8299  143.8786  157.4224 C.ar    1  UNL1        0.0111
     27 C         140.8026  145.0205  157.4173 C.ar    1  UNL1        0.0577
     28 CL        141.2619  145.6087  156.1161 Cl      1  UNL1       -0.0822
     29 C         141.3160  145.5742  158.7134 C.ar    1  UNL1        0.0111
     30 C         140.8567  144.9860  160.0146 C.ar    1  UNL1       -0.0018
     31 C         137.5282  142.1837  162.7363 C.3     1  UNL1        0.0021
     32 C         138.1031  142.5511  161.4003 C.3     1  UNL1        0.0241
@<TRIPOS>BOND
     1    31    32    1
     2    32    23    1
     3    23    19    1
     4    19    20   am
     5    20    21    2
     6    20     1    1
     7     1     2    1
     8     1     3    1
     9     3     4    1
    10     4     5    1
    11     5    10    1
    12    10    11    2
    13    11    12    1
    14    12    13    2
    15    13    14    1
    16    14    15    2
    17    15    16    1
    18    16    17    2
    19    17    18    1
    20     5     6    1
    21     6     7    1
    22    23    24    1
    23    24    25   ar
    24    25    26   ar
    25    26    27   ar
    26    27    28    1
    27    27    29   ar
    28    29    30   ar
    29     7     1    1
    30    30    24   ar
    31    18    10    1
    32    18    14    1
    33    19    22    1
    34     2     8    1
    35     2     9    1
