@<TRIPOS>MOLECULE
*****
 33 37 0 0 0
SMALL
GASTEIGER

@<TRIPOS>ATOM
      1 C         142.5589  141.8716  159.7107 C.ar    1  UNL1        0.0929
      2 C         142.7345  141.2466  158.3585 C.ar    1  UNL1        0.0405
      3 C         143.5026  139.9659  158.2183 C.ar    1  UNL1        0.1034
      4 N         144.0952  139.3102  159.4303 N.ar    1  UNL1       -0.2120
      5 C         143.9196  139.9352  160.7825 C.ar    1  UNL1        0.2217
      6 N         143.1515  141.2159  160.9227 N.ar    1  UNL1       -0.2130
      7 C         142.5668  144.3549  157.5934 C.3     1  UNL1        0.0527
      8 C         141.7944  144.2938  158.8778 C.ar    1  UNL1        0.0687
      9 N         140.8901  145.3634  159.4144 N.ar    1  UNL1       -0.2286
     10 C         140.3274  144.8831  160.7193 C.ar    1  UNL1        0.1595
     11 S         140.8841  143.5166  160.9891 S.2     1  UNL1       -0.0506
     12 C         141.7908  143.1524  159.8510 C.ar    1  UNL1        0.0634
     13 N         139.3753  145.6369  161.5998 N.pl3   1  UNL1       -0.3146
     14 H         139.0254  146.5109  161.3118 H       1  UNL1        0.1486
     15 C         138.9564  145.0591  162.9192 C.3     1  UNL1        0.0708
     16 C         137.7041  144.2760  163.1810 C.3     1  UNL1        0.0195
     17 C         137.6900  143.8959  164.6319 C.3     1  UNL1        0.0017
     18 C         138.9335  144.4440  165.2669 C.3     1  UNL1        0.0017
     19 C         139.7162  145.1629  164.2084 C.3     1  UNL1        0.0195
     20 N         144.5122  139.2795  161.9945 N.pl3   1  UNL1       -0.2680
     21 H         145.3623  138.7883  161.9223 H       1  UNL1        0.1565
     22 C         143.8095  139.3722  163.3164 C.ar    1  UNL1        0.1344
     23 C         144.0722  140.5360  164.2255 C.ar    1  UNL1        0.0358
     24 C         143.3695  140.6287  165.5475 C.ar    1  UNL1        0.0190
     25 C         142.4040  139.5575  165.9603 C.ar    1  UNL1        0.0675
     26 C         142.1412  138.3937  165.0513 C.ar    1  UNL1        0.1147
     27 N         142.8440  138.3010  163.7293 N.ar    1  UNL1       -0.2277
     28 N         141.7013  139.6502  167.2823 N.pl3   1  UNL1       -0.3015
     29 C         140.2407  139.9879  167.3333 C.3     1  UNL1        0.1231
     30 C         139.5380  140.0806  168.6552 C.3     1  UNL1        0.1636
     31 O         140.2959  139.8356  169.9263 O.3     1  UNL1       -0.3501
     32 C         141.7565  139.4979  169.8753 C.3     1  UNL1        0.1636
     33 C         142.4592  139.4052  168.5534 C.3     1  UNL1        0.1231
@<TRIPOS>BOND
     1     7     8    1
     2     8     9   ar
     3     9    10   ar
     4    10    13    1
     5    13    15    1
     6    15    16    1
     7    16    17    1
     8    17    18    1
     9    18    19    1
    10    10    11   ar
    11    11    12   ar
    12    12     1    1
    13     1     2   ar
    14     2     3   ar
    15     3     4   ar
    16     4     5   ar
    17     5    20    1
    18    20    22    1
    19    22    23   ar
    20    23    24   ar
    21    24    25   ar
    22    25    28    1
    23    28    29    1
    24    29    30    1
    25    30    31    1
    26    31    32    1
    27    32    33    1
    28    25    26   ar
    29    26    27   ar
    30     5     6   ar
    31    12     8   ar
    32     6     1   ar
    33    19    15    1
    34    27    22   ar
    35    33    28    1
    36    13    14    1
    37    20    21    1
@<TRIPOS>MOLECULE
*****
 33 37 0 0 0
SMALL
GASTEIGER

@<TRIPOS>ATOM
      1 C         138.7103  141.1786  161.5355 C.ar    1  UNL1        0.0929
      2 C         137.8018  140.6162  160.4828 C.ar    1  UNL1        0.0405
      3 C         137.2936  139.2101  160.6041 C.ar    1  UNL1        0.1034
      4 N         137.6940  138.3665  161.7780 N.ar    1  UNL1       -0.2120
      5 C         138.6026  138.9290  162.8306 C.ar    1  UNL1        0.2217
      6 N         139.1108  140.3350  162.7093 N.ar    1  UNL1       -0.2130
      7 C         137.6880  143.7444  163.2737 C.3     1  UNL1        0.0527
      8 C         138.7487  143.7640  162.2132 C.ar    1  UNL1        0.0687
      9 N         139.5256  144.9665  161.7655 N.ar    1  UNL1       -0.2286
     10 C         140.4757  144.5304  160.6898 C.ar    1  UNL1        0.1595
     11 S         140.2859  143.0584  160.4727 S.2     1  UNL1       -0.0506
     12 C         139.2186  142.5847  161.4143 C.ar    1  UNL1        0.0634
     13 N         141.4453  145.4115  159.9595 N.pl3   1  UNL1       -0.3146
     14 H         142.1373  145.9021  160.4591 H       1  UNL1        0.1486
     15 C         141.3604  145.5453  158.4678 C.3     1  UNL1        0.0708
     16 C         142.4269  145.1598  157.4860 C.3     1  UNL1        0.0195
     17 C         141.9198  145.4643  156.1075 C.3     1  UNL1        0.0017
     18 C         140.5399  146.0380  156.2375 C.3     1  UNL1        0.0017
     19 C         140.1942  146.0880  157.6962 C.3     1  UNL1        0.0195
     20 N         139.0030  138.0854  164.0045 N.pl3   1  UNL1       -0.2680
     21 H         139.0035  137.1038  163.9280 H       1  UNL1        0.1565
     22 C         139.4027  138.7372  165.2949 C.ar    1  UNL1        0.1344
     23 C         138.3726  138.9994  166.3533 C.ar    1  UNL1        0.0358
     24 C         138.7722  139.6512  167.6438 C.ar    1  UNL1        0.0190
     25 C         140.2020  140.0409  167.8759 C.ar    1  UNL1        0.0675
     26 C         141.2321  139.7787  166.8176 C.ar    1  UNL1        0.1147
     27 N         140.8325  139.1268  165.5271 N.ar    1  UNL1       -0.2277
     28 N         140.6017  140.6927  169.1665 N.pl3   1  UNL1       -0.3015
     29 C         139.8424  141.8835  169.6719 C.3     1  UNL1        0.1231
     30 C         140.2420  142.5353  170.9624 C.3     1  UNL1        0.1636
     31 O         141.4010  141.9963  171.7475 O.3     1  UNL1       -0.3501
     32 C         142.1603  140.8056  171.2420 C.3     1  UNL1        0.1636
     33 C         141.7607  140.1538  169.9515 C.3     1  UNL1        0.1231
@<TRIPOS>BOND
     1     7     8    1
     2     8     9   ar
     3     9    10   ar
     4    10    13    1
     5    13    15    1
     6    15    16    1
     7    16    17    1
     8    17    18    1
     9    18    19    1
    10    10    11   ar
    11    11    12   ar
    12    12     1    1
    13     1     2   ar
    14     2     3   ar
    15     3     4   ar
    16     4     5   ar
    17     5    20    1
    18    20    22    1
    19    22    23   ar
    20    23    24   ar
    21    24    25   ar
    22    25    28    1
    23    28    29    1
    24    29    30    1
    25    30    31    1
    26    31    32    1
    27    32    33    1
    28    25    26   ar
    29    26    27   ar
    30     5     6   ar
    31    12     8   ar
    32     6     1   ar
    33    19    15    1
    34    27    22   ar
    35    33    28    1
    36    13    14    1
    37    20    21    1
@<TRIPOS>MOLECULE
*****
 33 37 0 0 0
SMALL
GASTEIGER

@<TRIPOS>ATOM
      1 C         140.2753  142.7874  159.8297 C.ar    1  UNL1        0.0929
      2 C         140.1471  143.6563  158.6137 C.ar    1  UNL1        0.0405
      3 C         140.7916  145.0105  158.5883 C.ar    1  UNL1        0.1034
      4 N         141.5641  145.4959  159.7789 N.ar    1  UNL1       -0.2120
      5 C         141.6923  144.6271  160.9949 C.ar    1  UNL1        0.2217
      6 N         141.0479  143.2729  161.0203 N.ar    1  UNL1       -0.2130
      7 C         137.8652  141.7729  157.8773 C.3     1  UNL1        0.0527
      8 C         138.5231  140.9668  158.9578 C.ar    1  UNL1        0.0687
      9 N         138.1887  139.5529  159.3305 N.ar    1  UNL1       -0.2286
     10 C         139.0898  139.1453  160.4583 C.ar    1  UNL1        0.1595
     11 S         139.9811  140.3073  160.7825 S.2     1  UNL1       -0.0506
     12 C         139.6309  141.4331  159.8552 C.ar    1  UNL1        0.0634
     13 N         139.0982  137.8101  161.1418 N.pl3   1  UNL1       -0.3146
     14 H         138.7888  137.0088  160.6606 H       1  UNL1        0.1486
     15 C         139.5780  137.6956  162.5584 C.3     1  UNL1        0.0708
     16 C         140.9585  137.3013  162.9925 C.3     1  UNL1        0.0195
     17 C         140.9952  137.3174  164.4920 C.3     1  UNL1        0.0017
     18 C         139.6373  137.7218  164.9846 C.3     1  UNL1        0.0017
     19 C         138.7614  137.9555  163.7896 C.3     1  UNL1        0.0195
     20 N         142.4649  145.1125  162.1855 N.pl3   1  UNL1       -0.2680
     21 H         142.9107  145.9899  162.1586 H       1  UNL1        0.1565
     22 C         142.5582  144.2612  163.4169 C.ar    1  UNL1        0.1344
     23 C         143.8928  143.7575  163.8811 C.ar    1  UNL1        0.0358
     24 C         143.9861  142.9062  165.1125 C.ar    1  UNL1        0.0190
     25 C         142.7450  142.5585  165.8798 C.ar    1  UNL1        0.0675
     26 C         141.4105  143.0622  165.4157 C.ar    1  UNL1        0.1147
     27 N         141.3171  143.9136  164.1842 N.ar    1  UNL1       -0.2277
     28 N         142.8384  141.7072  167.1114 N.pl3   1  UNL1       -0.3015
     29 C         143.2036  142.3286  168.4268 C.3     1  UNL1        0.1231
     30 C         143.2970  141.4772  169.6582 C.3     1  UNL1        0.1636
     31 O         143.0252  140.0045  169.5742 O.3     1  UNL1       -0.3501
     32 C         142.6600  139.3830  168.2587 C.3     1  UNL1        0.1636
     33 C         142.5666  140.2344  167.0273 C.3     1  UNL1        0.1231
@<TRIPOS>BOND
     1     7     8    1
     2     8     9   ar
     3     9    10   ar
     4    10    13    1
     5    13    15    1
     6    15    16    1
     7    16    17    1
     8    17    18    1
     9    18    19    1
    10    10    11   ar
    11    11    12   ar
    12    12     1    1
    13     1     2   ar
    14     2     3   ar
    15     3     4   ar
    16     4     5   ar
    17     5    20    1
    18    20    22    1
    19    22    23   ar
    20    23    24   ar
    21    24    25   ar
    22    25    28    1
    23    28    29    1
    24    29    30    1
    25    30    31    1
    26    31    32    1
    27    32    33    1
    28    25    26   ar
    29    26    27   ar
    30     5     6   ar
    31    12     8   ar
    32     6     1   ar
    33    19    15    1
    34    27    22   ar
    35    33    28    1
    36    13    14    1
    37    20    21    1
@<TRIPOS>MOLECULE
*****
 33 37 0 0 0
SMALL
GASTEIGER

@<TRIPOS>ATOM
      1 C         141.5397  139.5396  160.7182 C.ar    1  UNL1        0.0929
      2 C         141.8179  138.3940  159.7907 C.ar    1  UNL1        0.0405
      3 C         142.9892  137.4918  160.0436 C.ar    1  UNL1        0.1034
      4 N         143.8823  137.7350  161.2240 N.ar    1  UNL1       -0.2120
      5 C         143.6040  138.8806  162.1515 C.ar    1  UNL1        0.2217
      6 N         142.4328  139.7829  161.8986 N.ar    1  UNL1       -0.2130
      7 C         139.7531  139.6447  157.9893 C.3     1  UNL1        0.0527
      8 C         139.5472  140.4902  159.2111 C.ar    1  UNL1        0.0687
      9 N         138.4840  141.5325  159.3929 N.ar    1  UNL1       -0.2286
     10 C         138.6480  142.1284  160.7597 C.ar    1  UNL1        0.1595
     11 S         139.8127  141.4544  161.4225 S.2     1  UNL1       -0.0506
     12 C         140.3684  140.4419  160.4654 C.ar    1  UNL1        0.0634
     13 N         137.7969  143.2087  161.3586 N.pl3   1  UNL1       -0.3146
     14 H         137.0259  143.5620  160.8585 H       1  UNL1        0.1486
     15 C         138.1203  143.7507  162.7193 C.3     1  UNL1        0.0708
     16 C         139.1471  144.7992  163.0295 C.3     1  UNL1        0.0195
     17 C         139.1351  145.0358  164.5107 C.3     1  UNL1        0.0017
     18 C         138.1009  144.1335  165.1159 C.3     1  UNL1        0.0017
     19 C         137.4737  143.3392  164.0088 C.3     1  UNL1        0.0195
     20 N         144.4971  139.1239  163.3318 N.pl3   1  UNL1       -0.2680
     21 H         145.4257  138.7970  163.3222 H       1  UNL1        0.1565
     22 C         143.9754  139.8651  164.5269 C.ar    1  UNL1        0.1344
     23 C         143.3337  139.1127  165.6549 C.ar    1  UNL1        0.0358
     24 C         142.8120  139.8540  166.8500 C.ar    1  UNL1        0.0190
     25 C         142.9318  141.3477  166.9171 C.ar    1  UNL1        0.0675
     26 C         143.5734  142.1001  165.7892 C.ar    1  UNL1        0.1147
     27 N         144.0952  141.3588  164.5941 N.ar    1  UNL1       -0.2277
     28 N         142.4100  142.0889  168.1123 N.pl3   1  UNL1       -0.3015
     29 C         143.2991  142.3209  169.2979 C.3     1  UNL1        0.1231
     30 C         142.7772  143.0621  170.4930 C.3     1  UNL1        0.1636
     31 O         141.3664  143.5714  170.5024 O.3     1  UNL1       -0.3501
     32 C         140.4773  143.3395  169.3168 C.3     1  UNL1        0.1636
     33 C         140.9991  142.5982  168.1217 C.3     1  UNL1        0.1231
@<TRIPOS>BOND
     1     7     8    1
     2     8     9   ar
     3     9    10   ar
     4    10    13    1
     5    13    15    1
     6    15    16    1
     7    16    17    1
     8    17    18    1
     9    18    19    1
    10    10    11   ar
    11    11    12   ar
    12    12     1    1
    13     1     2   ar
    14     2     3   ar
    15     3     4   ar
    16     4     5   ar
    17     5    20    1
    18    20    22    1
    19    22    23   ar
    20    23    24   ar
    21    24    25   ar
    22    25    28    1
    23    28    29    1
    24    29    30    1
    25    30    31    1
    26    31    32    1
    27    32    33    1
    28    25    26   ar
    29    26    27   ar
    30     5     6   ar
    31    12     8   ar
    32     6     1   ar
    33    19    15    1
    34    27    22   ar
    35    33    28    1
    36    13    14    1
    37    20    21    1
@<TRIPOS>MOLECULE
*****
 33 37 0 0 0
SMALL
GASTEIGER

@<TRIPOS>ATOM
      1 C         140.2071  138.8240  160.2885 C.ar    1  UNL1        0.0929
      2 C         138.9551  139.4689  159.7723 C.ar    1  UNL1        0.0405
      3 C         137.7101  139.4656  160.6089 C.ar    1  UNL1        0.1034
      4 N         137.7171  138.8174  161.9616 N.ar    1  UNL1       -0.2120
      5 C         138.9691  138.1725  162.4777 C.ar    1  UNL1        0.2217
      6 N         140.2141  138.1757  161.6412 N.ar    1  UNL1       -0.2130
      7 C         143.0078  140.3294  161.0231 C.3     1  UNL1        0.0527
      8 C         142.7395  139.5192  159.7896 C.ar    1  UNL1        0.0687
      9 N         143.7115  139.2587  158.6773 N.ar    1  UNL1       -0.2286
     10 C         143.0249  138.4057  157.6520 C.ar    1  UNL1        0.1595
     11 S         141.6286  138.1390  158.1308 S.2     1  UNL1       -0.0506
     12 C         141.4523  138.8272  159.4519 C.ar    1  UNL1        0.0634
     13 N         143.6286  137.9069  156.3726 N.pl3   1  UNL1       -0.3146
     14 H         144.2427  138.4818  155.8612 H       1  UNL1        0.1486
     15 C         143.2967  136.5322  155.8726 C.3     1  UNL1        0.0708
     16 C         142.6273  136.2054  154.5706 C.3     1  UNL1        0.0195
     17 C         142.4928  134.7142  154.4801 C.3     1  UNL1        0.0017
     18 C         143.0790  134.1194  155.7261 C.3     1  UNL1        0.0017
     19 C         143.5759  135.2430  156.5867 C.3     1  UNL1        0.0195
     20 N         138.9761  137.5242  163.8304 N.pl3   1  UNL1       -0.2680
     21 H         138.7651  136.5666  163.9184 H       1  UNL1        0.1565
     22 C         139.3044  138.3350  165.0489 C.ar    1  UNL1        0.1344
     23 C         138.2532  138.5841  166.0897 C.ar    1  UNL1        0.0358
     24 C         138.5815  139.3949  167.3082 C.ar    1  UNL1        0.0190
     25 C         139.9610  139.9566  167.4860 C.ar    1  UNL1        0.0675
     26 C         141.0121  139.7075  166.4453 C.ar    1  UNL1        0.1147
     27 N         140.6838  138.8967  165.2267 N.ar    1  UNL1       -0.2277
     28 N         140.2893  140.7674  168.7046 N.pl3   1  UNL1       -0.3015
     29 C         140.2748  142.2656  168.6349 C.3     1  UNL1        0.1231
     30 C         140.6031  143.0764  169.8534 C.3     1  UNL1        0.1636
     31 O         140.9459  142.3888  171.1417 O.3     1  UNL1       -0.3501
     32 C         140.9604  140.8905  171.2115 C.3     1  UNL1        0.1636
     33 C         140.6321  140.0798  169.9929 C.3     1  UNL1        0.1231
@<TRIPOS>BOND
     1     7     8    1
     2     8     9   ar
     3     9    10   ar
     4    10    13    1
     5    13    15    1
     6    15    16    1
     7    16    17    1
     8    17    18    1
     9    18    19    1
    10    10    11   ar
    11    11    12   ar
    12    12     1    1
    13     1     2   ar
    14     2     3   ar
    15     3     4   ar
    16     4     5   ar
    17     5    20    1
    18    20    22    1
    19    22    23   ar
    20    23    24   ar
    21    24    25   ar
    22    25    28    1
    23    28    29    1
    24    29    30    1
    25    30    31    1
    26    31    32    1
    27    32    33    1
    28    25    26   ar
    29    26    27   ar
    30     5     6   ar
    31    12     8   ar
    32     6     1   ar
    33    19    15    1
    34    27    22   ar
    35    33    28    1
    36    13    14    1
    37    20    21    1
@<TRIPOS>MOLECULE
*****
 33 37 0 0 0
SMALL
GASTEIGER

@<TRIPOS>ATOM
      1 C         142.2833  138.6673  158.5831 C.ar    1  UNL1        0.0929
      2 C         142.1947  140.0616  158.0372 C.ar    1  UNL1        0.0405
      3 C         142.7919  140.3824  156.6992 C.ar    1  UNL1        0.1034
      4 N         143.4778  139.3090  155.9071 N.ar    1  UNL1       -0.2120
      5 C         143.5664  137.9147  156.4530 C.ar    1  UNL1        0.2217
      6 N         142.9692  137.5939  157.7910 N.ar    1  UNL1       -0.2130
      7 C         143.9403  137.9378  161.2983 C.3     1  UNL1        0.0527
      8 C         142.4477  138.0111  161.1692 C.ar    1  UNL1        0.0687
      9 N         141.4547  137.7619  162.2654 N.ar    1  UNL1       -0.2286
     10 C         140.0792  137.9432  161.6950 C.ar    1  UNL1        0.1595
     11 S         140.2223  138.3044  160.2462 S.2     1  UNL1       -0.0506
     12 C         141.6861  138.3464  159.9212 C.ar    1  UNL1        0.0634
     13 N         138.7876  137.7902  162.4421 N.pl3   1  UNL1       -0.3146
     14 H         138.0376  137.3006  162.0335 H       1  UNL1        0.1486
     15 C         138.6388  138.3831  163.8119 C.3     1  UNL1        0.0708
     16 C         138.7947  137.6505  165.1115 C.3     1  UNL1        0.0195
     17 C         138.5601  138.6274  166.2253 C.3     1  UNL1        0.0017
     18 C         138.2592  139.9638  165.6141 C.3     1  UNL1        0.0017
     19 C         138.3078  139.8129  164.1226 C.3     1  UNL1        0.0195
     20 N         144.2522  136.8413  155.6609 N.pl3   1  UNL1       -0.2680
     21 H         145.0961  137.0376  155.1935 H       1  UNL1        0.1565
     22 C         143.6523  135.4689  155.5811 C.ar    1  UNL1        0.1344
     23 C         142.7673  135.1032  154.4264 C.ar    1  UNL1        0.0358
     24 C         142.1673  133.7308  154.3466 C.ar    1  UNL1        0.0190
     25 C         142.4523  132.7239  155.4213 C.ar    1  UNL1        0.0675
     26 C         143.3372  133.0895  156.5759 C.ar    1  UNL1        0.1147
     27 N         143.9373  134.4620  156.6558 N.ar    1  UNL1       -0.2277
     28 N         141.8523  131.3514  155.3414 N.pl3   1  UNL1       -0.3015
     29 C         140.5299  131.1493  154.6628 C.3     1  UNL1        0.1231
     30 C         139.9300  129.7769  154.5829 C.3     1  UNL1        0.1636
     31 O         140.6524  128.6065  155.1816 O.3     1  UNL1       -0.3501
     32 C         141.9748  128.8086  155.8601 C.3     1  UNL1        0.1636
     33 C         142.5747  130.1811  155.9400 C.3     1  UNL1        0.1231
@<TRIPOS>BOND
     1     7     8    1
     2     8     9   ar
     3     9    10   ar
     4    10    13    1
     5    13    15    1
     6    15    16    1
     7    16    17    1
     8    17    18    1
     9    18    19    1
    10    10    11   ar
    11    11    12   ar
    12    12     1    1
    13     1     2   ar
    14     2     3   ar
    15     3     4   ar
    16     4     5   ar
    17     5    20    1
    18    20    22    1
    19    22    23   ar
    20    23    24   ar
    21    24    25   ar
    22    25    28    1
    23    28    29    1
    24    29    30    1
    25    30    31    1
    26    31    32    1
    27    32    33    1
    28    25    26   ar
    29    26    27   ar
    30     5     6   ar
    31    12     8   ar
    32     6     1   ar
    33    19    15    1
    34    27    22   ar
    35    33    28    1
    36    13    14    1
    37    20    21    1
@<TRIPOS>MOLECULE
*****
 33 37 0 0 0
SMALL
GASTEIGER

@<TRIPOS>ATOM
      1 C         138.2353  140.7402  158.7372 C.ar    1  UNL1        0.0929
      2 C         138.7496  142.1481  158.6794 C.ar    1  UNL1        0.0405
      3 C         138.2390  143.0905  157.6301 C.ar    1  UNL1        0.1034
      4 N         137.2140  142.6252  156.6387 N.ar    1  UNL1       -0.2120
      5 C         136.6997  141.2173  156.6965 C.ar    1  UNL1        0.2217
      6 N         137.2104  140.2748  157.7457 N.ar    1  UNL1       -0.2130
      7 C         141.0809  139.1443  158.6611 C.3     1  UNL1        0.0527
      8 C         140.0539  139.0641  159.7515 C.ar    1  UNL1        0.0687
      9 N         140.1546  138.2363  160.9983 N.ar    1  UNL1       -0.2286
     10 C         138.9088  138.4582  161.8039 C.ar    1  UNL1        0.1595
     11 S         138.0383  139.4232  161.0549 S.2     1  UNL1       -0.0506
     12 C         138.7460  139.7976  159.7864 C.ar    1  UNL1        0.0634
     13 N         138.5897  137.8261  163.1262 N.pl3   1  UNL1       -0.3146
     14 H         138.2855  136.8906  163.1640 H       1  UNL1        0.1486
     15 C         138.7340  138.6195  164.3911 C.3     1  UNL1        0.0708
     16 C         138.3935  138.1455  165.7728 C.3     1  UNL1        0.0195
     17 C         138.6932  139.2592  166.7319 C.3     1  UNL1        0.0017
     18 C         139.2189  140.4216  165.9428 C.3     1  UNL1        0.0017
     19 C         139.2442  140.0262  164.4961 C.3     1  UNL1        0.0195
     20 N         135.6748  140.7519  155.7051 N.pl3   1  UNL1       -0.2680
     21 H         135.9125  140.6694  154.7533 H       1  UNL1        0.1565
     22 C         134.2876  140.4123  156.1638 C.ar    1  UNL1        0.1344
     23 C         133.1075  141.1305  155.5793 C.ar    1  UNL1        0.0358
     24 C         131.7204  140.7909  156.0380 C.ar    1  UNL1        0.0190
     25 C         131.5133  139.7332  157.0812 C.ar    1  UNL1        0.0675
     26 C         132.6933  139.0151  157.6658 C.ar    1  UNL1        0.1147
     27 N         134.0806  139.3546  157.2071 N.ar    1  UNL1       -0.2277
     28 N         130.1260  139.3936  157.5399 N.pl3   1  UNL1       -0.3015
     29 C         129.9237  138.3993  158.6446 C.3     1  UNL1        0.1231
     30 C         128.5365  138.0598  159.1032 C.3     1  UNL1        0.1636
     31 O         127.3517  138.7146  158.4572 O.3     1  UNL1       -0.3501
     32 C         127.5540  139.7089  157.3526 C.3     1  UNL1        0.1636
     33 C         128.9412  140.0484  156.8939 C.3     1  UNL1        0.1231
@<TRIPOS>BOND
     1     7     8    1
     2     8     9   ar
     3     9    10   ar
     4    10    13    1
     5    13    15    1
     6    15    16    1
     7    16    17    1
     8    17    18    1
     9    18    19    1
    10    10    11   ar
    11    11    12   ar
    12    12     1    1
    13     1     2   ar
    14     2     3   ar
    15     3     4   ar
    16     4     5   ar
    17     5    20    1
    18    20    22    1
    19    22    23   ar
    20    23    24   ar
    21    24    25   ar
    22    25    28    1
    23    28    29    1
    24    29    30    1
    25    30    31    1
    26    31    32    1
    27    32    33    1
    28    25    26   ar
    29    26    27   ar
    30     5     6   ar
    31    12     8   ar
    32     6     1   ar
    33    19    15    1
    34    27    22   ar
    35    33    28    1
    36    13    14    1
    37    20    21    1
@<TRIPOS>MOLECULE
*****
 33 37 0 0 0
SMALL
GASTEIGER

@<TRIPOS>ATOM
      1 C         140.3653  140.8720  159.4946 C.ar    1  UNL1        0.0929
      2 C         139.6321  140.9414  158.1879 C.ar    1  UNL1        0.0405
      3 C         138.2007  140.5005  158.1068 C.ar    1  UNL1        0.1034
      4 N         137.5025  139.9900  159.3324 N.ar    1  UNL1       -0.2120
      5 C         138.2358  139.9206  160.6391 C.ar    1  UNL1        0.2217
      6 N         139.6672  140.3615  160.7202 N.ar    1  UNL1       -0.2130
      7 C         142.7660  139.9764  157.4736 C.3     1  UNL1        0.0527
      8 C         142.9002  140.9013  158.6468 C.ar    1  UNL1        0.0687
      9 N         144.1615  141.5769  159.0971 N.ar    1  UNL1       -0.2286
     10 C         143.8376  142.4062  160.3043 C.ar    1  UNL1        0.1595
     11 S         142.3761  142.2430  160.6002 S.2     1  UNL1       -0.0506
     12 C         141.7968  141.3129  159.5758 C.ar    1  UNL1        0.0634
     13 N         144.8052  143.2503  161.0796 N.pl3   1  UNL1       -0.3146
     14 H         145.5978  143.6266  160.6330 H       1  UNL1        0.1486
     15 C         144.5652  143.5211  162.5353 C.3     1  UNL1        0.0708
     16 C         143.9450  144.7595  163.1112 C.3     1  UNL1        0.0195
     17 C         143.8998  144.6048  164.6025 C.3     1  UNL1        0.0017
     18 C         144.4922  143.2708  164.9483 C.3     1  UNL1        0.0017
     19 C         144.9035  142.6010  163.6708 C.3     1  UNL1        0.0195
     20 N         137.5376  139.4102  161.8647 N.pl3   1  UNL1       -0.2680
     21 H         136.6419  139.0087  161.7896 H       1  UNL1        0.1565
     22 C         138.2043  139.5115  163.2045 C.ar    1  UNL1        0.1344
     23 C         138.9577  138.3384  163.7580 C.ar    1  UNL1        0.0358
     24 C         139.6244  138.4397  165.0979 C.ar    1  UNL1        0.0190
     25 C         139.5376  139.7140  165.8843 C.ar    1  UNL1        0.0675
     26 C         138.7842  140.8870  165.3309 C.ar    1  UNL1        0.1147
     27 N         138.1175  140.7858  163.9910 N.ar    1  UNL1       -0.2277
     28 N         140.2043  139.8153  167.2243 N.pl3   1  UNL1       -0.3015
     29 C         139.3807  140.0488  168.4560 C.3     1  UNL1        0.1231
     30 C         140.0474  140.1501  169.7958 C.3     1  UNL1        0.1636
     31 O         141.5377  140.0178  169.9039 O.3     1  UNL1       -0.3501
     32 C         142.3612  139.7842  168.6722 C.3     1  UNL1        0.1636
     33 C         141.6945  139.6830  167.3324 C.3     1  UNL1        0.1231
@<TRIPOS>BOND
     1     7     8    1
     2     8     9   ar
     3     9    10   ar
     4    10    13    1
     5    13    15    1
     6    15    16    1
     7    16    17    1
     8    17    18    1
     9    18    19    1
    10    10    11   ar
    11    11    12   ar
    12    12     1    1
    13     1     2   ar
    14     2     3   ar
    15     3     4   ar
    16     4     5   ar
    17     5    20    1
    18    20    22    1
    19    22    23   ar
    20    23    24   ar
    21    24    25   ar
    22    25    28    1
    23    28    29    1
    24    29    30    1
    25    30    31    1
    26    31    32    1
    27    32    33    1
    28    25    26   ar
    29    26    27   ar
    30     5     6   ar
    31    12     8   ar
    32     6     1   ar
    33    19    15    1
    34    27    22   ar
    35    33    28    1
    36    13    14    1
    37    20    21    1
@<TRIPOS>MOLECULE
*****
 33 37 0 0 0
SMALL
GASTEIGER

@<TRIPOS>ATOM
      1 C         141.3567  138.8442  159.6963 C.ar    1  UNL1        0.0929
      2 C         142.5235  139.7591  159.9223 C.ar    1  UNL1        0.0405
      3 C         143.5913  139.8852  158.8764 C.ar    1  UNL1        0.1034
      4 N         143.4922  139.0963  157.6045 N.ar    1  UNL1       -0.2120
      5 C         142.3253  138.1813  157.3785 C.ar    1  UNL1        0.2217
      6 N         141.2575  138.0552  158.4244 N.ar    1  UNL1       -0.2130
      7 C         138.3378  140.0701  159.5133 C.3     1  UNL1        0.0527
      8 C         138.9013  139.2815  160.6581 C.ar    1  UNL1        0.0687
      9 N         138.1760  138.9180  161.9198 N.ar    1  UNL1       -0.2286
     10 C         139.1154  138.1298  162.7837 C.ar    1  UNL1        0.1595
     11 S         140.4211  138.0062  162.0560 S.2     1  UNL1       -0.0506
     12 C         140.2888  138.7180  160.7422 C.ar    1  UNL1        0.0634
     13 N         138.8037  137.5644  164.1377 N.pl3   1  UNL1       -0.3146
     14 H         138.4638  136.6442  164.2205 H       1  UNL1        0.1486
     15 C         139.0098  138.4012  165.3654 C.3     1  UNL1        0.0708
     16 C         138.0312  138.5744  166.4889 C.3     1  UNL1        0.0195
     17 C         138.6474  139.4919  167.5031 C.3     1  UNL1        0.0017
     18 C         140.0069  139.8858  167.0063 C.3     1  UNL1        0.0017
     19 C         140.2309  139.2117  165.6852 C.3     1  UNL1        0.0195
     20 N         142.2262  137.3924  156.1065 N.pl3   1  UNL1       -0.2680
     21 H         142.1218  137.8580  155.2454 H       1  UNL1        0.1565
     22 C         142.2860  135.8942  156.1467 C.ar    1  UNL1        0.1344
     23 C         141.4767  135.0850  155.1769 C.ar    1  UNL1        0.0358
     24 C         141.5366  133.5868  155.2170 C.ar    1  UNL1        0.0190
     25 C         142.4057  132.8976  156.2269 C.ar    1  UNL1        0.0675
     26 C         143.2150  133.7068  157.1966 C.ar    1  UNL1        0.1147
     27 N         143.1551  135.2051  157.1565 N.ar    1  UNL1       -0.2277
     28 N         142.4656  131.3993  156.2669 N.pl3   1  UNL1       -0.3015
     29 C         143.3699  130.7108  157.2457 C.3     1  UNL1        0.1231
     30 C         143.4297  129.2125  157.2857 C.3     1  UNL1        0.1636
     31 O         142.5852  128.4028  156.3470 O.3     1  UNL1       -0.3501
     32 C         141.6808  129.0914  155.3683 C.3     1  UNL1        0.1636
     33 C         141.6210  130.5896  155.3282 C.3     1  UNL1        0.1231
@<TRIPOS>BOND
     1     7     8    1
     2     8     9   ar
     3     9    10   ar
     4    10    13    1
     5    13    15    1
     6    15    16    1
     7    16    17    1
     8    17    18    1
     9    18    19    1
    10    10    11   ar
    11    11    12   ar
    12    12     1    1
    13     1     2   ar
    14     2     3   ar
    15     3     4   ar
    16     4     5   ar
    17     5    20    1
    18    20    22    1
    19    22    23   ar
    20    23    24   ar
    21    24    25   ar
    22    25    28    1
    23    28    29    1
    24    29    30    1
    25    30    31    1
    26    31    32    1
    27    32    33    1
    28    25    26   ar
    29    26    27   ar
    30     5     6   ar
    31    12     8   ar
    32     6     1   ar
    33    19    15    1
    34    27    22   ar
    35    33    28    1
    36    13    14    1
    37    20    21    1
