@<TRIPOS>MOLECULE
*****
 31 34 0 0 0
SMALL
GASTEIGER

@<TRIPOS>ATOM
      1 N         141.1319  141.4909  166.7374 N.ar    1  UNL1       -0.3266
      2 C         141.7688  140.5037  165.8048 C.ar    1  UNL1        0.0599
      3 C         142.5165  139.2272  166.0524 C.ar    1  UNL1        0.0171
      4 C         143.0496  138.4339  164.8963 C.ar    1  UNL1        0.0053
      5 C         142.8350  138.9173  163.4926 C.ar    1  UNL1        0.0715
      6 C         142.0873  140.1938  163.2450 C.ar    1  UNL1        0.0053
      7 C         141.5543  140.9871  164.4011 C.ar    1  UNL1        0.0171
      8 C         140.7847  142.2729  164.4662 C.ar    1  UNL1        0.0171
      9 C         140.2879  143.2005  163.3972 C.ar    1  UNL1        0.0053
     10 C         139.5300  144.4396  163.7722 C.ar    1  UNL1        0.0715
     11 C         139.2690  144.7510  165.2161 C.ar    1  UNL1        0.0053
     12 C         139.7658  143.8234  166.2850 C.ar    1  UNL1        0.0171
     13 C         140.5236  142.5844  165.9101 C.ar    1  UNL1        0.0599
     14 O         139.1963  139.7793  167.8204 O.3     1  UNL1       -0.3811
     15 C         140.0711  140.4840  168.8144 C.3     1  UNL1        0.1467
     16 C         139.7940  140.1792  170.2566 C.3     1  UNL1        0.1001
     17 N         140.4847  140.7155  171.4754 N.3     1  UNL1       -0.2954
     18 C         141.6232  141.6891  171.5527 C.3     1  UNL1        0.0687
     19 C         142.3521  142.3669  170.4305 C.3     1  UNL1        0.0191
     20 C         142.1226  142.2384  168.9538 C.3     1  UNL1        0.0265
     21 C         141.1075  141.4005  168.2345 C.3     1  UNL1        0.1136
     22 H         138.5632  139.2141  168.2903 H       1  UNL1        0.2105
     23 H         140.8242  139.8861  171.9624 H       1  UNL1        0.1233
     24 C         143.3681  138.1240  162.3365 C.3     1  UNL1        0.4186
     25 F         143.9012  137.3307  161.1804 F       1  UNL1       -0.1659
     26 F         142.0949  137.3322  162.2926 F       1  UNL1       -0.1659
     27 F         144.6413  138.9158  162.3804 F       1  UNL1       -0.1659
     28 C         139.0332  145.3672  162.7031 C.3     1  UNL1        0.4186
     29 F         138.5365  146.2948  161.6341 F       1  UNL1       -0.1659
     30 F         137.6626  144.7695  162.8214 F       1  UNL1       -0.1659
     31 F         140.4039  145.9649  162.5849 F       1  UNL1       -0.1659
@<TRIPOS>BOND
     1    15    14    1
     2    15    16    1
     3    16    17    1
     4    17    18    1
     5    18    19    1
     6    19    20    1
     7    20    21    1
     8    21     1    1
     9     1     2   ar
    10     2     3   ar
    11     3     4   ar
    12     4     5   ar
    13     5    24    1
    14    24    25    1
    15    24    26    1
    16    24    27    1
    17     5     6   ar
    18     6     7   ar
    19     7     8   ar
    20     8     9   ar
    21     9    10   ar
    22    10    28    1
    23    28    29    1
    24    28    30    1
    25    28    31    1
    26    10    11   ar
    27    11    12   ar
    28    12    13   ar
    29    21    15    1
    30    13     1   ar
    31     7     2   ar
    32    13     8   ar
    33    14    22    1
    34    17    23    1
@<TRIPOS>MOLECULE
*****
 31 34 0 0 0
SMALL
GASTEIGER

@<TRIPOS>ATOM
      1 N         141.1360  141.4863  166.7372 N.ar    1  UNL1       -0.3266
      2 C         140.5261  142.5796  165.9110 C.ar    1  UNL1        0.0599
      3 C         139.7681  143.8181  166.2872 C.ar    1  UNL1        0.0171
      4 C         139.2694  144.7457  165.2192 C.ar    1  UNL1        0.0053
      5 C         139.5288  144.4348  163.7748 C.ar    1  UNL1        0.0715
      6 C         140.2869  143.1964  163.3986 C.ar    1  UNL1        0.0053
      7 C         140.7855  142.2688  164.4667 C.ar    1  UNL1        0.0171
      8 C         141.5557  140.9833  164.4003 C.ar    1  UNL1        0.0171
      9 C         142.0878  140.1907  163.2433 C.ar    1  UNL1        0.0053
     10 C         142.8365  138.9145  163.4896 C.ar    1  UNL1        0.0715
     11 C         143.0532  138.4308  164.8928 C.ar    1  UNL1        0.0053
     12 C         142.5211  139.2235  166.0498 C.ar    1  UNL1        0.0171
     13 C         141.7724  140.4997  165.8035 C.ar    1  UNL1        0.0599
     14 O         139.2090  139.7660  167.8218 O.3     1  UNL1       -0.3811
     15 C         140.0817  140.4744  168.8151 C.3     1  UNL1        0.1467
     16 C         139.8074  140.1681  170.2575 C.3     1  UNL1        0.1001
     17 N         140.4969  140.7072  171.4757 N.3     1  UNL1       -0.2954
     18 C         141.6313  141.6857  171.5521 C.3     1  UNL1        0.0687
     19 C         142.3561  142.3669  170.4293 C.3     1  UNL1        0.0191
     20 C         142.1256  142.2376  168.9527 C.3     1  UNL1        0.0265
     21 C         141.1135  141.3955  168.2343 C.3     1  UNL1        0.1136
     22 H         138.5789  139.1980  168.2923 H       1  UNL1        0.2105
     23 H         140.8406  139.8792  171.9622 H       1  UNL1        0.1233
     24 C         139.0301  145.3625  162.7067 C.3     1  UNL1        0.4186
     25 F         138.5315  146.2902  161.6386 F       1  UNL1       -0.1659
     26 F         137.6598  144.7644  162.8269 F       1  UNL1       -0.1659
     27 F         140.4004  145.9606  162.5865 F       1  UNL1       -0.1659
     28 C         143.3686  138.1218  162.3325 C.3     1  UNL1        0.4186
     29 F         143.9007  137.3292  161.1755 F       1  UNL1       -0.1659
     30 F         144.6412  138.9148  162.3745 F       1  UNL1       -0.1659
     31 F         142.0960  137.3290  162.2906 F       1  UNL1       -0.1659
@<TRIPOS>BOND
     1    15    14    1
     2    15    16    1
     3    16    17    1
     4    17    18    1
     5    18    19    1
     6    19    20    1
     7    20    21    1
     8    21     1    1
     9     1     2   ar
    10     2     3   ar
    11     3     4   ar
    12     4     5   ar
    13     5    24    1
    14    24    25    1
    15    24    26    1
    16    24    27    1
    17     5     6   ar
    18     6     7   ar
    19     7     8   ar
    20     8     9   ar
    21     9    10   ar
    22    10    28    1
    23    28    29    1
    24    28    30    1
    25    28    31    1
    26    10    11   ar
    27    11    12   ar
    28    12    13   ar
    29    21    15    1
    30    13     1   ar
    31     7     2   ar
    32    13     8   ar
    33    14    22    1
    34    17    23    1
@<TRIPOS>MOLECULE
*****
 31 34 0 0 0
SMALL
GASTEIGER

@<TRIPOS>ATOM
      1 N         141.4627  141.0197  166.7409 N.ar    1  UNL1       -0.3266
      2 C         142.4266  141.6780  165.7988 C.ar    1  UNL1        0.0599
      3 C         143.6144  142.5632  166.0345 C.ar    1  UNL1        0.0171
      4 C         144.4054  143.0826  164.8707 C.ar    1  UNL1        0.0053
      5 C         144.0086  142.7167  163.4711 C.ar    1  UNL1        0.0715
      6 C         142.8209  141.8314  163.2354 C.ar    1  UNL1        0.0053
      7 C         142.0299  141.3121  164.3993 C.ar    1  UNL1        0.0171
      8 C         140.8208  140.4277  164.4764 C.ar    1  UNL1        0.0171
      9 C         139.9937  139.7636  163.4158 C.ar    1  UNL1        0.0053
     10 C         138.8160  138.9189  163.8025 C.ar    1  UNL1        0.0715
     11 C         138.4654  138.7382  165.2497 C.ar    1  UNL1        0.0053
     12 C         139.2925  139.4023  166.3103 C.ar    1  UNL1        0.0171
     13 C         140.4702  140.2471  165.9236 C.ar    1  UNL1        0.0599
     14 O         143.0965  139.1606  168.0537 O.3     1  UNL1       -0.3811
     15 C         142.3618  140.1217  168.9405 C.3     1  UNL1        0.1467
     16 C         142.5989  139.9604  170.4127 C.3     1  UNL1        0.1001
     17 N         142.0199  140.7546  171.5459 N.3     1  UNL1       -0.2954
     18 C         141.0607  141.9062  171.4865 C.3     1  UNL1        0.0687
     19 C         140.4436  142.5482  170.2794 C.3     1  UNL1        0.0191
     20 C         140.6334  142.1970  168.8335 C.3     1  UNL1        0.0265
     21 C         141.4870  141.1171  168.2375 C.3     1  UNL1        0.1136
     22 H         143.6312  138.5620  168.5985 H       1  UNL1        0.2105
     23 H         142.8320  141.1237  172.0404 H       1  UNL1        0.1233
     24 C         144.7997  143.2361  162.3073 C.3     1  UNL1        0.4186
     25 F         145.5907  143.7555  161.1435 F       1  UNL1       -0.1659
     26 F         145.1867  141.8331  161.9442 F       1  UNL1       -0.1659
     27 F         144.4127  144.6390  162.6704 F       1  UNL1       -0.1659
     28 C         137.9889  138.2548  162.7418 C.3     1  UNL1        0.4186
     29 F         137.1618  137.5907  161.6812 F       1  UNL1       -0.1659
     30 F         138.4798  136.9131  163.1990 F       1  UNL1       -0.1659
     31 F         137.4980  139.5965  162.2847 F       1  UNL1       -0.1659
@<TRIPOS>BOND
     1    15    14    1
     2    15    16    1
     3    16    17    1
     4    17    18    1
     5    18    19    1
     6    19    20    1
     7    20    21    1
     8    21     1    1
     9     1     2   ar
    10     2     3   ar
    11     3     4   ar
    12     4     5   ar
    13     5    24    1
    14    24    25    1
    15    24    26    1
    16    24    27    1
    17     5     6   ar
    18     6     7   ar
    19     7     8   ar
    20     8     9   ar
    21     9    10   ar
    22    10    28    1
    23    28    29    1
    24    28    30    1
    25    28    31    1
    26    10    11   ar
    27    11    12   ar
    28    12    13   ar
    29    21    15    1
    30    13     1   ar
    31     7     2   ar
    32    13     8   ar
    33    14    22    1
    34    17    23    1
@<TRIPOS>MOLECULE
*****
 31 34 0 0 0
SMALL
GASTEIGER

@<TRIPOS>ATOM
      1 N         141.4949  141.0063  166.7304 N.ar    1  UNL1       -0.3266
      2 C         140.4966  140.2351  165.9190 C.ar    1  UNL1        0.0599
      3 C         139.3182  139.3944  166.3124 C.ar    1  UNL1        0.0171
      4 C         138.4845  138.7309  165.2567 C.ar    1  UNL1        0.0053
      5 C         138.8291  138.9080  163.8076 C.ar    1  UNL1        0.0715
      6 C         140.0074  139.7486  163.4142 C.ar    1  UNL1        0.0053
      7 C         140.8411  140.4122  164.4699 C.ar    1  UNL1        0.0171
      8 C         142.0525  141.2929  164.3858 C.ar    1  UNL1        0.0171
      9 C         142.8398  141.8079  163.2175 C.ar    1  UNL1        0.0053
     10 C         144.0311  142.6902  163.4463 C.ar    1  UNL1        0.0715
     11 C         144.4352  143.0574  164.8434 C.ar    1  UNL1        0.0053
     12 C         143.6479  142.5423  166.0117 C.ar    1  UNL1        0.0171
     13 C         142.4565  141.6601  165.7829 C.ar    1  UNL1        0.0599
     14 O         143.1009  139.1217  168.0413 O.3     1  UNL1       -0.3811
     15 C         142.3860  140.0971  168.9287 C.3     1  UNL1        0.1467
     16 C         142.6255  139.9346  170.4004 C.3     1  UNL1        0.1001
     17 N         142.0643  140.7410  171.5340 N.3     1  UNL1       -0.2954
     18 C         141.1250  141.9090  171.4756 C.3     1  UNL1        0.0687
     19 C         140.5149  142.5592  170.2693 C.3     1  UNL1        0.0191
     20 C         140.6935  142.2019  168.8235 C.3     1  UNL1        0.0265
     21 C         141.5262  141.1062  168.2268 C.3     1  UNL1        0.1136
     22 H         143.6269  138.5150  168.5854 H       1  UNL1        0.2105
     23 H         142.8845  141.0969  172.0249 H       1  UNL1        0.1233
     24 C         137.9953  138.2444  162.7519 C.3     1  UNL1        0.4186
     25 F         137.1615  137.5808  161.6962 F       1  UNL1       -0.1659
     26 F         137.5031  139.5863  162.2970 F       1  UNL1       -0.1659
     27 F         138.4875  136.9024  163.2067 F       1  UNL1       -0.1659
     28 C         144.8184  143.2052  162.2780 C.3     1  UNL1        0.4186
     29 F         145.6057  143.7202  161.1097 F       1  UNL1       -0.1659
     30 F         144.4487  144.6109  162.6485 F       1  UNL1       -0.1659
     31 F         145.1881  141.7994  161.9075 F       1  UNL1       -0.1659
@<TRIPOS>BOND
     1    15    14    1
     2    15    16    1
     3    16    17    1
     4    17    18    1
     5    18    19    1
     6    19    20    1
     7    20    21    1
     8    21     1    1
     9     1     2   ar
    10     2     3   ar
    11     3     4   ar
    12     4     5   ar
    13     5    24    1
    14    24    25    1
    15    24    26    1
    16    24    27    1
    17     5     6   ar
    18     6     7   ar
    19     7     8   ar
    20     8     9   ar
    21     9    10   ar
    22    10    28    1
    23    28    29    1
    24    28    30    1
    25    28    31    1
    26    10    11   ar
    27    11    12   ar
    28    12    13   ar
    29    21    15    1
    30    13     1   ar
    31     7     2   ar
    32    13     8   ar
    33    14    22    1
    34    17    23    1
@<TRIPOS>MOLECULE
*****
 31 34 0 0 0
SMALL
GASTEIGER

@<TRIPOS>ATOM
      1 N         141.5131  139.5907  161.5723 N.ar    1  UNL1       -0.3266
      2 C         140.5556  139.0637  162.5996 C.ar    1  UNL1        0.0599
      3 C         139.5042  137.9957  162.5373 C.ar    1  UNL1        0.0171
      4 C         138.6825  137.6804  163.7519 C.ar    1  UNL1        0.0053
      5 C         138.9122  138.4331  165.0289 C.ar    1  UNL1        0.0715
      6 C         139.9636  139.5011  165.0912 C.ar    1  UNL1        0.0053
      7 C         140.7852  139.8164  163.8766 C.ar    1  UNL1        0.0171
      8 C         141.8847  140.8087  163.6384 C.ar    1  UNL1        0.0171
      9 C         142.5344  141.8211  164.5344 C.ar    1  UNL1        0.0053
     10 C         143.6339  142.6942  164.0062 C.ar    1  UNL1        0.0715
     11 C         144.0837  142.5547  162.5821 C.ar    1  UNL1        0.0053
     12 C         143.4341  141.5422  161.6861 C.ar    1  UNL1        0.0171
     13 C         142.3346  140.6692  162.2143 C.ar    1  UNL1        0.0599
     14 O         143.1377  137.3453  161.1624 O.3     1  UNL1       -0.3811
     15 C         142.4987  137.9194  159.9327 C.3     1  UNL1        0.1467
     16 C         142.8139  137.2154  158.6463 C.3     1  UNL1        0.1001
     17 N         142.3373  137.5397  157.2615 N.3     1  UNL1       -0.2954
     18 C         141.4276  138.6481  156.8212 C.3     1  UNL1        0.0687
     19 C         140.7699  139.7060  157.6569 C.3     1  UNL1        0.0191
     20 C         140.8595  139.9167  159.1394 C.3     1  UNL1        0.0265
     21 C         141.6288  139.1216  160.1522 C.3     1  UNL1        0.1136
     22 H         143.6765  136.5766  160.9180 H       1  UNL1        0.2105
     23 H         141.8741  136.6879  156.9447 H       1  UNL1        0.1233
     24 C         138.0905  138.1178  166.2436 C.3     1  UNL1        0.4186
     25 F         137.2688  137.8024  167.4582 F       1  UNL1       -0.1659
     26 F         138.0101  139.5798  166.5688 F       1  UNL1       -0.1659
     27 F         138.1709  136.6557  165.9183 F       1  UNL1       -0.1659
     28 C         144.2836  143.7067  164.9022 C.3     1  UNL1        0.4186
     29 F         144.9332  144.7192  165.7982 F       1  UNL1       -0.1659
     30 F         144.1886  142.7493  166.0530 F       1  UNL1       -0.1659
     31 F         144.3785  144.6641  163.7514 F       1  UNL1       -0.1659
@<TRIPOS>BOND
     1    15    14    1
     2    15    16    1
     3    16    17    1
     4    17    18    1
     5    18    19    1
     6    19    20    1
     7    20    21    1
     8    21     1    1
     9     1     2   ar
    10     2     3   ar
    11     3     4   ar
    12     4     5   ar
    13     5    24    1
    14    24    25    1
    15    24    26    1
    16    24    27    1
    17     5     6   ar
    18     6     7   ar
    19     7     8   ar
    20     8     9   ar
    21     9    10   ar
    22    10    28    1
    23    28    29    1
    24    28    30    1
    25    28    31    1
    26    10    11   ar
    27    11    12   ar
    28    12    13   ar
    29    21    15    1
    30    13     1   ar
    31     7     2   ar
    32    13     8   ar
    33    14    22    1
    34    17    23    1
@<TRIPOS>MOLECULE
*****
 31 34 0 0 0
SMALL
GASTEIGER

@<TRIPOS>ATOM
      1 N         141.5639  139.6243  161.5577 N.ar    1  UNL1       -0.3266
      2 C         142.3718  140.7164  162.1939 C.ar    1  UNL1        0.0599
      3 C         143.4646  141.5959  161.6628 C.ar    1  UNL1        0.0171
      4 C         144.1002  142.6225  162.5527 C.ar    1  UNL1        0.0053
      5 C         143.6431  142.7695  163.9738 C.ar    1  UNL1        0.0715
      6 C         142.5502  141.8900  164.5049 C.ar    1  UNL1        0.0053
      7 C         141.9146  140.8634  163.6149 C.ar    1  UNL1        0.0171
      8 C         140.8242  139.8622  163.8570 C.ar    1  UNL1        0.0171
      9 C         140.0007  139.5489  165.0709 C.ar    1  UNL1        0.0053
     10 C         138.9604  138.4697  165.0134 C.ar    1  UNL1        0.0715
     11 C         138.7436  137.7039  163.7420 C.ar    1  UNL1        0.0053
     12 C         139.5672  138.0172  162.5281 C.ar    1  UNL1        0.0171
     13 C         140.6075  139.0963  162.5856 C.ar    1  UNL1        0.0599
     14 O         143.1378  137.3365  161.1858 O.3     1  UNL1       -0.3811
     15 C         142.5330  137.9194  159.9430 C.3     1  UNL1        0.1467
     16 C         142.8509  137.2005  158.6656 C.3     1  UNL1        0.1001
     17 N         142.4046  137.5287  157.2716 N.3     1  UNL1       -0.2954
     18 C         141.5302  138.6572  156.8110 C.3     1  UNL1        0.0687
     19 C         140.8862  139.7359  157.6304 C.3     1  UNL1        0.0191
     20 C         140.9575  139.9527  159.1130 C.3     1  UNL1        0.0265
     21 C         141.6904  139.1444  160.1422 C.3     1  UNL1        0.1136
     22 H         143.6608  136.5531  160.9541 H       1  UNL1        0.2105
     23 H         141.9252  136.6871  156.9519 H       1  UNL1        0.1233
     24 C         144.2788  143.7961  164.8638 C.3     1  UNL1        0.4186
     25 F         144.9144  144.8228  165.7536 F       1  UNL1       -0.1659
     26 F         144.2797  142.8134  165.9969 F       1  UNL1       -0.1659
     27 F         144.2779  144.7789  163.7306 F       1  UNL1       -0.1659
     28 C         138.1368  138.1564  166.2274 C.3     1  UNL1        0.4186
     29 F         137.3132  137.8431  167.4413 F       1  UNL1       -0.1659
     30 F         138.1658  139.6037  166.6206 F       1  UNL1       -0.1659
     31 F         138.1078  136.7092  165.8341 F       1  UNL1       -0.1659
@<TRIPOS>BOND
     1    15    14    1
     2    15    16    1
     3    16    17    1
     4    17    18    1
     5    18    19    1
     6    19    20    1
     7    20    21    1
     8    21     1    1
     9     1     2   ar
    10     2     3   ar
    11     3     4   ar
    12     4     5   ar
    13     5    24    1
    14    24    25    1
    15    24    26    1
    16    24    27    1
    17     5     6   ar
    18     6     7   ar
    19     7     8   ar
    20     8     9   ar
    21     9    10   ar
    22    10    28    1
    23    28    29    1
    24    28    30    1
    25    28    31    1
    26    10    11   ar
    27    11    12   ar
    28    12    13   ar
    29    21    15    1
    30    13     1   ar
    31     7     2   ar
    32    13     8   ar
    33    14    22    1
    34    17    23    1
@<TRIPOS>MOLECULE
*****
 31 34 0 0 0
SMALL
GASTEIGER

@<TRIPOS>ATOM
      1 N         140.2390  139.6952  160.5715 N.ar    1  UNL1       -0.3266
      2 C         140.2194  141.1944  160.6165 C.ar    1  UNL1        0.0599
      3 C         140.6007  142.2340  159.6047 C.ar    1  UNL1        0.0171
      4 C         140.4712  143.6902  159.9403 C.ar    1  UNL1        0.0053
      5 C         139.9604  144.1068  161.2878 C.ar    1  UNL1        0.0715
      6 C         139.5791  143.0672  162.2996 C.ar    1  UNL1        0.0053
      7 C         139.7087  141.6110  161.9640 C.ar    1  UNL1        0.0171
      8 C         139.4126  140.3692  162.7516 C.ar    1  UNL1        0.0171
      9 C         138.8869  140.1637  164.1414 C.ar    1  UNL1        0.0053
     10 C         138.6889  138.7741  164.6705 C.ar    1  UNL1        0.0715
     11 C         139.0167  137.5901  163.8099 C.ar    1  UNL1        0.0053
     12 C         139.5424  137.7956  162.4202 C.ar    1  UNL1        0.0171
     13 C         139.7404  139.1852  161.8910 C.ar    1  UNL1        0.0599
     14 O         142.9010  138.8245  160.6429 O.3     1  UNL1       -0.3811
     15 C         142.1052  138.3875  159.4488 C.3     1  UNL1        0.1467
     16 C         142.8397  137.5422  158.4510 C.3     1  UNL1        0.1001
     17 N         142.3305  136.9542  157.1684 N.3     1  UNL1       -0.2954
     18 C         140.9610  137.0664  156.5669 C.3     1  UNL1        0.0687
     19 C         139.7624  137.7943  157.0994 C.3     1  UNL1        0.0191
     20 C         139.6373  138.5897  158.3651 C.3     1  UNL1        0.0265
     21 C         140.6799  138.8537  159.4106 C.3     1  UNL1        0.1136
     22 H         143.8033  138.4749  160.5756 H       1  UNL1        0.2105
     23 H         142.4843  135.9509  157.2685 H       1  UNL1        0.1233
     24 C         139.8309  145.5631  161.6234 C.3     1  UNL1        0.4186
     25 F         139.7014  147.0193  161.9589 F       1  UNL1       -0.1659
     26 F         138.9878  145.2138  162.8138 F       1  UNL1       -0.1659
     27 F         140.6740  145.9123  160.4330 F       1  UNL1       -0.1659
     28 C         138.1632  138.5686  166.0603 C.3     1  UNL1        0.4186
     29 F         137.6374  138.3632  167.4500 F       1  UNL1       -0.1659
     30 F         138.2489  137.0828  165.8731 F       1  UNL1       -0.1659
     31 F         138.0774  140.0544  166.2474 F       1  UNL1       -0.1659
@<TRIPOS>BOND
     1    15    14    1
     2    15    16    1
     3    16    17    1
     4    17    18    1
     5    18    19    1
     6    19    20    1
     7    20    21    1
     8    21     1    1
     9     1     2   ar
    10     2     3   ar
    11     3     4   ar
    12     4     5   ar
    13     5    24    1
    14    24    25    1
    15    24    26    1
    16    24    27    1
    17     5     6   ar
    18     6     7   ar
    19     7     8   ar
    20     8     9   ar
    21     9    10   ar
    22    10    28    1
    23    28    29    1
    24    28    30    1
    25    28    31    1
    26    10    11   ar
    27    11    12   ar
    28    12    13   ar
    29    21    15    1
    30    13     1   ar
    31     7     2   ar
    32    13     8   ar
    33    14    22    1
    34    17    23    1
@<TRIPOS>MOLECULE
*****
 31 34 0 0 0
SMALL
GASTEIGER

@<TRIPOS>ATOM
      1 N         140.9956  139.6690  160.8763 N.ar    1  UNL1       -0.3266
      2 C         141.6959  140.9212  161.3137 C.ar    1  UNL1        0.0599
      3 C         142.6085  141.8661  160.5896 C.ar    1  UNL1        0.0171
      4 C         143.1692  143.0611  161.3021 C.ar    1  UNL1        0.0053
      5 C         142.8174  143.3111  162.7386 C.ar    1  UNL1        0.0715
      6 C         141.9049  142.3662  163.4628 C.ar    1  UNL1        0.0053
      7 C         141.3441  141.1713  162.7503 C.ar    1  UNL1        0.0171
      8 C         140.4264  140.0735  163.2006 C.ar    1  UNL1        0.0171
      9 C         139.7591  139.7995  164.5157 C.ar    1  UNL1        0.0053
     10 C         138.8763  138.5969  164.6726 C.ar    1  UNL1        0.0715
     11 C         138.6609  137.6684  163.5144 C.ar    1  UNL1        0.0053
     12 C         139.3282  137.9425  162.1993 C.ar    1  UNL1        0.0171
     13 C         140.2110  139.1450  162.0424 C.ar    1  UNL1        0.0599
     14 O         138.8198  140.1882  159.1894 O.3     1  UNL1       -0.3811
     15 C         139.9023  139.3274  158.6089 C.3     1  UNL1        0.1467
     16 C         139.6769  138.8584  157.2021 C.3     1  UNL1        0.1001
     17 N         140.5606  137.9956  156.3509 N.3     1  UNL1       -0.2954
     18 C         141.8881  137.3887  156.6963 C.3     1  UNL1        0.0687
     19 C         142.6598  137.4947  157.9782 C.3     1  UNL1        0.0191
     20 C         142.2945  138.2338  159.2313 C.3     1  UNL1        0.0265
     21 C         141.0674  139.0494  159.5121 C.3     1  UNL1        0.1136
     22 H         138.1159  140.3091  158.5330 H       1  UNL1        0.2105
     23 H         140.7455  138.5594  155.5211 H       1  UNL1        0.1233
     24 C         143.3782  144.5061  163.4511 C.3     1  UNL1        0.4186
     25 F         143.9390  145.7011  164.1635 F       1  UNL1       -0.1659
     26 F         144.5728  144.4863  162.5441 F       1  UNL1       -0.1659
     27 F         142.1837  144.5259  164.3581 F       1  UNL1       -0.1659
     28 C         138.2089  138.3228  165.9878 C.3     1  UNL1        0.4186
     29 F         137.5416  138.0488  167.3029 F       1  UNL1       -0.1659
     30 F         137.9956  139.7943  166.1862 F       1  UNL1       -0.1659
     31 F         138.4223  136.8514  165.7892 F       1  UNL1       -0.1659
@<TRIPOS>BOND
     1    15    14    1
     2    15    16    1
     3    16    17    1
     4    17    18    1
     5    18    19    1
     6    19    20    1
     7    20    21    1
     8    21     1    1
     9     1     2   ar
    10     2     3   ar
    11     3     4   ar
    12     4     5   ar
    13     5    24    1
    14    24    25    1
    15    24    26    1
    16    24    27    1
    17     5     6   ar
    18     6     7   ar
    19     7     8   ar
    20     8     9   ar
    21     9    10   ar
    22    10    28    1
    23    28    29    1
    24    28    30    1
    25    28    31    1
    26    10    11   ar
    27    11    12   ar
    28    12    13   ar
    29    21    15    1
    30    13     1   ar
    31     7     2   ar
    32    13     8   ar
    33    14    22    1
    34    17    23    1
@<TRIPOS>MOLECULE
*****
 31 34 0 0 0
SMALL
GASTEIGER

@<TRIPOS>ATOM
      1 N         142.5576  141.8545  161.4922 N.ar    1  UNL1       -0.3266
      2 C         143.0675  140.8737  162.5061 C.ar    1  UNL1        0.0599
      3 C         144.1526  139.8400  162.4453 C.ar    1  UNL1        0.0171
      4 C         144.4432  138.9862  163.6439 C.ar    1  UNL1        0.0053
      5 C         143.6486  139.1663  164.9033 C.ar    1  UNL1        0.0715
      6 C         142.5635  140.2001  164.9642 C.ar    1  UNL1        0.0053
      7 C         142.2729  141.0538  163.7656 C.ar    1  UNL1        0.0171
      8 C         141.2720  142.1458  163.5300 C.ar    1  UNL1        0.0171
      9 C         140.2230  142.7536  164.4134 C.ar    1  UNL1        0.0053
     10 C         139.3500  143.8562  163.8917 C.ar    1  UNL1        0.0715
     11 C         139.5260  144.3511  162.4867 C.ar    1  UNL1        0.0053
     12 C         140.5749  143.7434  161.6033 C.ar    1  UNL1        0.0171
     13 C         141.4479  142.6408  162.1250 C.ar    1  UNL1        0.0599
     14 O         145.1380  142.9200  161.2564 O.3     1  UNL1       -0.3811
     15 C         144.4495  142.5905  159.9651 C.3     1  UNL1        0.1467
     16 C         145.2334  142.8750  158.7184 C.3     1  UNL1        0.1001
     17 N         144.8296  142.6594  157.2900 N.3     1  UNL1       -0.2954
     18 C         143.5420  142.1059  156.7555 C.3     1  UNL1        0.0687
     19 C         142.3401  141.6314  157.5174 C.3     1  UNL1        0.0191
     20 C         142.1292  141.5932  159.0021 C.3     1  UNL1        0.0265
     21 C         143.0679  142.0200  160.0914 C.3     1  UNL1        0.1136
     22 H         146.0191  143.2803  161.0702 H       1  UNL1        0.2105
     23 H         145.5492  142.0436  156.9112 H       1  UNL1        0.1233
     24 C         143.9392  138.3125  166.1020 C.3     1  UNL1        0.4186
     25 F         144.2299  137.4588  167.3005 F       1  UNL1       -0.1659
     26 F         142.4852  138.3337  166.4696 F       1  UNL1       -0.1659
     27 F         145.3933  138.2914  165.7343 F       1  UNL1       -0.1659
     28 C         138.3010  144.4639  164.7752 C.3     1  UNL1        0.4186
     29 F         137.2521  145.0716  165.6586 F       1  UNL1       -0.1659
     30 F         137.3241  144.4317  163.6374 F       1  UNL1       -0.1659
     31 F         139.2781  144.4961  165.9129 F       1  UNL1       -0.1659
@<TRIPOS>BOND
     1    15    14    1
     2    15    16    1
     3    16    17    1
     4    17    18    1
     5    18    19    1
     6    19    20    1
     7    20    21    1
     8    21     1    1
     9     1     2   ar
    10     2     3   ar
    11     3     4   ar
    12     4     5   ar
    13     5    24    1
    14    24    25    1
    15    24    26    1
    16    24    27    1
    17     5     6   ar
    18     6     7   ar
    19     7     8   ar
    20     8     9   ar
    21     9    10   ar
    22    10    28    1
    23    28    29    1
    24    28    30    1
    25    28    31    1
    26    10    11   ar
    27    11    12   ar
    28    12    13   ar
    29    21    15    1
    30    13     1   ar
    31     7     2   ar
    32    13     8   ar
    33    14    22    1
    34    17    23    1
