@<TRIPOS>MOLECULE
*****
 33 36 0 0 0
SMALL
GASTEIGER

@<TRIPOS>ATOM
      1 N         138.9850  142.9930  162.7767 N.3     1  UNL1       -0.2727
      2 C         139.7895  142.2187  161.7752 C.3     1  UNL1        0.0721
      3 C         139.3621  140.8372  161.3766 C.3     1  UNL1        0.0187
      4 C         138.1301  140.2301  161.9796 C.3     1  UNL1        0.0185
      5 C         137.3255  141.0045  162.9812 C.3     1  UNL1        0.0187
      6 C         137.7530  142.3859  163.3797 C.3     1  UNL1        0.0721
      7 C         139.4125  144.3745  163.1753 C.3     1  UNL1        0.0724
      8 C         140.3937  144.5625  164.2942 C.3     1  UNL1        0.0220
      9 C         141.5459  143.6146  164.4484 C.3     1  UNL1        0.0278
     10 C         141.6331  140.7204  167.8931 C.ar    1  UNL1        0.0553
     11 C         140.3771  140.8952  167.0920 C.ar    1  UNL1        0.0043
     12 C         140.3480  141.8600  165.9438 C.ar    1  UNL1       -0.0041
     13 C         141.5750  142.6498  165.5966 C.ar    1  UNL1       -0.0221
     14 C         142.8310  142.4750  166.3977 C.ar    1  UNL1       -0.0041
     15 C         142.8601  141.5103  167.5459 C.ar    1  UNL1        0.0043
     16 O         140.4478  139.5798  169.9041 O.2     1  UNL1       -0.2681
     17 C         141.6622  139.7556  169.0413 C.2     1  UNL1        0.2677
     18 N         142.9056  138.9668  169.3269 N.am    1  UNL1       -0.1934
     19 O         142.9347  138.0021  170.4751 O.3     1  UNL1       -0.2949
     20 H         143.7027  139.0822  168.7606 H       1  UNL1        0.1825
     21 H         142.0758  138.0099  170.9258 H       1  UNL1        0.2414
     22 C         137.7026  138.8487  161.5811 C.3     1  UNL1        0.0686
     23 N         138.3526  137.6519  162.2097 N.3     1  UNL1       -0.2983
     24 H         139.0629  137.3247  161.5549 H       1  UNL1        0.1232
     25 C         139.0209  137.7771  163.5468 C.3     1  UNL1        0.0584
     26 C         138.9781  137.6323  165.0391 C.3     1  UNL1        0.0217
     27 C         140.2214  138.1388  164.3702 C.3     1  UNL1        0.0381
     28 C         141.6324  138.6400  164.4594 C.ar    1  UNL1       -0.0212
     29 C         142.1356  139.6448  163.4658 C.ar    1  UNL1       -0.0042
     30 C         143.5465  140.1460  163.5550 C.ar    1  UNL1       -0.0003
     31 C         144.4543  139.6424  164.6377 C.ar    1  UNL1       -0.0000
     32 C         143.9512  138.6375  165.6312 C.ar    1  UNL1       -0.0003
     33 C         142.5401  138.1363  165.5420 C.ar    1  UNL1       -0.0042
@<TRIPOS>BOND
     1    16    17    2
     2    17    18   am
     3    18    19    1
     4    17    10    1
     5    10    11   ar
     6    11    12   ar
     7    12    13   ar
     8    13     9    1
     9     9     8    1
    10     8     7    1
    11     7     1    1
    12     1     2    1
    13     2     3    1
    14     3     4    1
    15     4    22    1
    16    22    23    1
    17    25    23    1
    18    25    26    1
    19    26    27    1
    20    27    28    1
    21    28    29   ar
    22    29    30   ar
    23    30    31   ar
    24    31    32   ar
    25    32    33   ar
    26     4     5    1
    27     5     6    1
    28    13    14   ar
    29    14    15   ar
    30    15    10   ar
    31     6     1    1
    32    27    25    1
    33    33    28   ar
    34    18    20    1
    35    19    21    1
    36    23    24    1
@<TRIPOS>MOLECULE
*****
 33 36 0 0 0
SMALL
GASTEIGER

@<TRIPOS>ATOM
      1 N         143.5845  143.5893  162.7918 N.3     1  UNL1       -0.2727
      2 C         143.1111  144.6922  163.6914 C.3     1  UNL1        0.0721
      3 C         141.8381  145.4212  163.3783 C.3     1  UNL1        0.0187
      4 C         141.0385  145.0471  162.1655 C.3     1  UNL1        0.0185
      5 C         141.5120  143.9441  161.2659 C.3     1  UNL1        0.0187
      6 C         142.7850  143.2152  161.5790 C.3     1  UNL1        0.0721
      7 C         144.8576  142.8603  163.1049 C.3     1  UNL1        0.0724
      8 C         144.9807  142.0795  164.3798 C.3     1  UNL1        0.0220
      9 C         144.0935  140.8946  164.6222 C.3     1  UNL1        0.0278
     10 C         141.0182  141.0206  167.9050 C.ar    1  UNL1        0.0553
     11 C         141.7223  139.7352  167.5858 C.ar    1  UNL1        0.0043
     12 C         142.7474  139.6932  166.4916 C.ar    1  UNL1       -0.0041
     13 C         143.0684  140.9366  165.7164 C.ar    1  UNL1       -0.0221
     14 C         142.3643  142.2220  166.0356 C.ar    1  UNL1       -0.0041
     15 C         141.3391  142.2640  167.1298 C.ar    1  UNL1        0.0043
     16 O         139.8598  142.2869  169.8555 O.2     1  UNL1       -0.2681
     17 C         139.9930  141.0626  168.9992 C.2     1  UNL1        0.2677
     18 N         139.1012  139.8803  169.2372 N.am    1  UNL1       -0.1934
     19 O         138.0761  139.9223  170.3314 O.3     1  UNL1       -0.2949
     20 H         139.1886  139.0768  168.6751 H       1  UNL1        0.1825
     21 H         138.1222  140.7785  170.7850 H       1  UNL1        0.2414
     22 C         139.7655  145.7760  161.8524 C.3     1  UNL1        0.0686
     23 N         138.4492  145.2123  162.2990 N.3     1  UNL1       -0.2983
     24 H         138.1218  144.6008  161.5512 H       1  UNL1        0.1232
     25 C         138.3643  144.4233  163.5720 C.3     1  UNL1        0.0584
     26 C         138.0183  144.3420  165.0293 C.3     1  UNL1        0.0217
     27 C         138.5634  143.1382  164.3196 C.3     1  UNL1        0.0381
     28 C         138.9930  141.7013  164.3414 C.ar    1  UNL1       -0.0212
     29 C         140.0676  141.2255  163.4093 C.ar    1  UNL1       -0.0042
     30 C         140.4973  139.7885  163.4311 C.ar    1  UNL1       -0.0003
     31 C         139.8522  138.8273  164.3851 C.ar    1  UNL1       -0.0000
     32 C         138.7776  139.3030  165.3172 C.ar    1  UNL1       -0.0003
     33 C         138.3480  140.7401  165.2953 C.ar    1  UNL1       -0.0042
@<TRIPOS>BOND
     1    16    17    2
     2    17    18   am
     3    18    19    1
     4    17    10    1
     5    10    11   ar
     6    11    12   ar
     7    12    13   ar
     8    13     9    1
     9     9     8    1
    10     8     7    1
    11     7     1    1
    12     1     2    1
    13     2     3    1
    14     3     4    1
    15     4    22    1
    16    22    23    1
    17    25    23    1
    18    25    26    1
    19    26    27    1
    20    27    28    1
    21    28    29   ar
    22    29    30   ar
    23    30    31   ar
    24    31    32   ar
    25    32    33   ar
    26     4     5    1
    27     5     6    1
    28    13    14   ar
    29    14    15   ar
    30    15    10   ar
    31     6     1    1
    32    27    25    1
    33    33    28   ar
    34    18    20    1
    35    19    21    1
    36    23    24    1
@<TRIPOS>MOLECULE
*****
 33 36 0 0 0
SMALL
GASTEIGER

@<TRIPOS>ATOM
      1 N         139.2842  143.4589  162.7136 N.3     1  UNL1       -0.2727
      2 C         139.5355  144.4707  163.7921 C.3     1  UNL1        0.0721
      3 C         140.9352  144.9257  164.0822 C.3     1  UNL1        0.0187
      4 C         142.0834  144.3689  163.2938 C.3     1  UNL1        0.0185
      5 C         141.8320  143.3571  162.2152 C.3     1  UNL1        0.0187
      6 C         140.4324  142.9022  161.9252 C.3     1  UNL1        0.0721
      7 C         137.8846  143.0039  162.4235 C.3     1  UNL1        0.0724
      8 C         137.3385  141.7807  163.0985 C.3     1  UNL1        0.0220
      9 C         138.2506  140.6372  163.4308 C.3     1  UNL1        0.0278
     10 C         139.8089  140.1471  167.6238 C.ar    1  UNL1        0.0553
     11 C         138.7055  139.2616  167.1255 C.ar    1  UNL1        0.0043
     12 C         138.1861  139.4250  165.7278 C.ar    1  UNL1       -0.0041
     13 C         138.7700  140.4738  164.8285 C.ar    1  UNL1       -0.0221
     14 C         139.8734  141.3593  165.3268 C.ar    1  UNL1       -0.0041
     15 C         140.3928  141.1960  166.7245 C.ar    1  UNL1        0.0043
     16 O         141.7936  140.1418  169.3003 O.2     1  UNL1       -0.2681
     17 C         140.3283  139.9838  169.0215 C.2     1  UNL1        0.2677
     18 N         139.3824  139.6623  170.1404 N.am    1  UNL1       -0.1934
     19 O         139.9018  139.4990  171.5381 O.3     1  UNL1       -0.2949
     20 H         138.4206  139.5586  169.9574 H       1  UNL1        0.1825
     21 H         140.8625  139.6325  171.5436 H       1  UNL1        0.2414
     22 C         143.4829  144.8239  163.5838 C.3     1  UNL1        0.0686
     23 N         144.3453  144.0410  164.5290 N.3     1  UNL1       -0.2983
     24 H         143.8438  143.9955  165.4161 H       1  UNL1        0.1232
     25 C         144.7498  142.6375  164.1877 C.3     1  UNL1        0.0584
     26 C         145.7761  141.6684  163.6802 C.3     1  UNL1        0.0217
     27 C         144.4243  141.1756  164.1040 C.3     1  UNL1        0.0381
     28 C         143.4558  140.0472  164.3003 C.ar    1  UNL1       -0.0212
     29 C         143.3999  139.3269  165.6149 C.ar    1  UNL1       -0.0042
     30 C         142.4314  138.1985  165.8112 C.ar    1  UNL1       -0.0003
     31 C         141.5187  137.7902  164.6930 C.ar    1  UNL1       -0.0000
     32 C         141.5746  138.5105  163.3784 C.ar    1  UNL1       -0.0003
     33 C         142.5431  139.6390  163.1821 C.ar    1  UNL1       -0.0042
@<TRIPOS>BOND
     1    16    17    2
     2    17    18   am
     3    18    19    1
     4    17    10    1
     5    10    11   ar
     6    11    12   ar
     7    12    13   ar
     8    13     9    1
     9     9     8    1
    10     8     7    1
    11     7     1    1
    12     1     2    1
    13     2     3    1
    14     3     4    1
    15     4    22    1
    16    22    23    1
    17    25    23    1
    18    25    26    1
    19    26    27    1
    20    27    28    1
    21    28    29   ar
    22    29    30   ar
    23    30    31   ar
    24    31    32   ar
    25    32    33   ar
    26     4     5    1
    27     5     6    1
    28    13    14   ar
    29    14    15   ar
    30    15    10   ar
    31     6     1    1
    32    27    25    1
    33    33    28   ar
    34    18    20    1
    35    19    21    1
    36    23    24    1
@<TRIPOS>MOLECULE
*****
 33 36 0 0 0
SMALL
GASTEIGER

@<TRIPOS>ATOM
      1 N         144.1581  142.7784  162.6765 N.3     1  UNL1       -0.2727
      2 C         143.0676  142.5323  161.6763 C.3     1  UNL1        0.0721
      3 C         141.9074  143.4787  161.5836 C.3     1  UNL1        0.0187
      4 C         141.8378  144.6710  162.4910 C.3     1  UNL1        0.0185
      5 C         142.9283  144.9171  163.4911 C.3     1  UNL1        0.0187
      6 C         144.0884  143.9708  163.5839 C.3     1  UNL1        0.0721
      7 C         145.3183  141.8321  162.7692 C.3     1  UNL1        0.0724
      8 C         145.2530  140.6541  163.6954 C.3     1  UNL1        0.0220
      9 C         143.9236  140.0777  164.0832 C.3     1  UNL1        0.0278
     10 C         142.3860  140.5926  168.2809 C.ar    1  UNL1        0.0553
     11 C         142.5064  141.7821  167.3751 C.ar    1  UNL1        0.0043
     12 C         143.0189  141.6105  165.9758 C.ar    1  UNL1       -0.0041
     13 C         143.4111  140.2493  165.4825 C.ar    1  UNL1       -0.0221
     14 C         143.2907  139.0598  166.3883 C.ar    1  UNL1       -0.0041
     15 C         142.7782  139.2315  167.7875 C.ar    1  UNL1        0.0043
     16 O         140.4445  141.1566  169.9126 O.2     1  UNL1       -0.2681
     17 C         141.8735  140.7643  169.6801 C.2     1  UNL1        0.2677
     18 N         142.7899  140.5437  170.8469 N.am    1  UNL1       -0.1934
     19 O         142.2774  140.7153  172.2461 O.3     1  UNL1       -0.2949
     20 H         143.7279  140.2862  170.6944 H       1  UNL1        0.1825
     21 H         141.3413  140.9681  172.2189 H       1  UNL1        0.2414
     22 C         140.6777  145.6173  162.3982 C.3     1  UNL1        0.0686
     23 N         139.3294  145.2031  162.9087 N.3     1  UNL1       -0.2983
     24 H         138.8972  144.6405  162.1758 H       1  UNL1        0.1232
     25 C         139.2183  144.4163  164.1810 C.3     1  UNL1        0.0584
     26 C         138.9515  144.3627  165.6560 C.3     1  UNL1        0.0217
     27 C         139.2927  143.1072  164.9095 C.3     1  UNL1        0.0381
     28 C         139.5327  141.6266  164.8990 C.ar    1  UNL1       -0.0212
     29 C         140.0637  140.9616  163.6638 C.ar    1  UNL1       -0.0042
     30 C         140.3037  139.4810  163.6534 C.ar    1  UNL1       -0.0003
     31 C         140.0125  138.6653  164.8781 C.ar    1  UNL1       -0.0000
     32 C         139.4814  139.3303  166.1133 C.ar    1  UNL1       -0.0003
     33 C         139.2415  140.8110  166.1237 C.ar    1  UNL1       -0.0042
@<TRIPOS>BOND
     1    16    17    2
     2    17    18   am
     3    18    19    1
     4    17    10    1
     5    10    11   ar
     6    11    12   ar
     7    12    13   ar
     8    13     9    1
     9     9     8    1
    10     8     7    1
    11     7     1    1
    12     1     2    1
    13     2     3    1
    14     3     4    1
    15     4    22    1
    16    22    23    1
    17    25    23    1
    18    25    26    1
    19    26    27    1
    20    27    28    1
    21    28    29   ar
    22    29    30   ar
    23    30    31   ar
    24    31    32   ar
    25    32    33   ar
    26     4     5    1
    27     5     6    1
    28    13    14   ar
    29    14    15   ar
    30    15    10   ar
    31     6     1    1
    32    27    25    1
    33    33    28   ar
    34    18    20    1
    35    19    21    1
    36    23    24    1
@<TRIPOS>MOLECULE
*****
 33 36 0 0 0
SMALL
GASTEIGER

@<TRIPOS>ATOM
      1 N         141.4296  140.2036  162.8148 N.3     1  UNL1       -0.2727
      2 C         141.6893  141.3866  161.9299 C.3     1  UNL1        0.0721
      3 C         140.5586  142.2891  161.5332 C.3     1  UNL1        0.0187
      4 C         139.1683  142.0084  162.0214 C.3     1  UNL1        0.0185
      5 C         138.9087  140.8254  162.9063 C.3     1  UNL1        0.0187
      6 C         140.0393  139.9230  163.3030 C.3     1  UNL1        0.0721
      7 C         142.5603  139.3012  163.2116 C.3     1  UNL1        0.0724
      8 C         143.1188  139.3657  164.6022 C.3     1  UNL1        0.0220
      9 C         142.4593  138.6012  165.7115 C.3     1  UNL1        0.0278
     10 C         140.8364  140.7863  169.2950 C.ar    1  UNL1        0.0553
     11 C         139.9454  140.5040  168.1219 C.ar    1  UNL1        0.0043
     12 C         140.4864  139.7756  166.9274 C.ar    1  UNL1       -0.0041
     13 C         141.9183  139.3296  166.9060 C.ar    1  UNL1       -0.0221
     14 C         142.8093  139.6119  168.0792 C.ar    1  UNL1       -0.0041
     15 C         142.2684  140.3402  169.2737 C.ar    1  UNL1        0.0043
     16 O         140.5391  140.9780  171.8689 O.2     1  UNL1       -0.2681
     17 C         140.2955  141.5146  170.4896 C.2     1  UNL1        0.2677
     18 N         139.5108  142.7796  170.3047 N.am    1  UNL1       -0.1934
     19 O         138.9698  143.5079  171.4993 O.3     1  UNL1       -0.2949
     20 H         139.3509  143.1318  169.3994 H       1  UNL1        0.1825
     21 H         139.2152  143.0307  172.3073 H       1  UNL1        0.2414
     22 C         138.0377  142.9108  161.6247 C.3     1  UNL1        0.0686
     23 N         137.6547  144.0641  162.5039 N.3     1  UNL1       -0.2983
     24 H         136.6754  143.9300  162.7556 H       1  UNL1        0.1232
     25 C         138.4000  144.3129  163.7817 C.3     1  UNL1        0.0584
     26 C         138.4048  144.7284  165.2230 C.3     1  UNL1        0.0217
     27 C         139.6861  144.3283  164.5536 C.3     1  UNL1        0.0381
     28 C         141.1684  144.1062  164.6127 C.ar    1  UNL1       -0.0212
     29 C         141.7234  142.9541  165.3966 C.ar    1  UNL1       -0.0042
     30 C         143.2057  142.7319  165.4558 C.ar    1  UNL1       -0.0003
     31 C         144.1329  143.6620  164.7310 C.ar    1  UNL1       -0.0000
     32 C         143.5779  144.8141  163.9471 C.ar    1  UNL1       -0.0003
     33 C         142.0955  145.0362  163.8880 C.ar    1  UNL1       -0.0042
@<TRIPOS>BOND
     1    16    17    2
     2    17    18   am
     3    18    19    1
     4    17    10    1
     5    10    11   ar
     6    11    12   ar
     7    12    13   ar
     8    13     9    1
     9     9     8    1
    10     8     7    1
    11     7     1    1
    12     1     2    1
    13     2     3    1
    14     3     4    1
    15     4    22    1
    16    22    23    1
    17    25    23    1
    18    25    26    1
    19    26    27    1
    20    27    28    1
    21    28    29   ar
    22    29    30   ar
    23    30    31   ar
    24    31    32   ar
    25    32    33   ar
    26     4     5    1
    27     5     6    1
    28    13    14   ar
    29    14    15   ar
    30    15    10   ar
    31     6     1    1
    32    27    25    1
    33    33    28   ar
    34    18    20    1
    35    19    21    1
    36    23    24    1
@<TRIPOS>MOLECULE
*****
 33 36 0 0 0
SMALL
GASTEIGER

@<TRIPOS>ATOM
      1 N         141.6300  138.4377  164.1214 N.3     1  UNL1       -0.2727
      2 C         142.5293  138.5232  165.3188 C.3     1  UNL1        0.0721
      3 C         143.6015  139.5705  165.3783 C.3     1  UNL1        0.0187
      4 C         143.7743  140.5325  164.2404 C.3     1  UNL1        0.0185
      5 C         142.8748  140.4470  163.0430 C.3     1  UNL1        0.0187
      6 C         141.8027  139.3997  162.9835 C.3     1  UNL1        0.0721
      7 C         140.5578  137.3904  164.0619 C.3     1  UNL1        0.0724
      8 C         139.1625  137.7195  164.5034 C.3     1  UNL1        0.0220
      9 C         138.7619  139.1486  164.7201 C.3     1  UNL1        0.0278
     10 C         140.0608  141.3091  168.4478 C.ar    1  UNL1        0.0553
     11 C         139.2599  140.0453  168.5539 C.ar    1  UNL1        0.0043
     12 C         138.8269  139.3251  167.3114 C.ar    1  UNL1       -0.0041
     13 C         139.1949  139.8688  165.9627 C.ar    1  UNL1       -0.0221
     14 C         139.9957  141.1326  165.8566 C.ar    1  UNL1       -0.0041
     15 C         140.4287  141.8527  167.0991 C.ar    1  UNL1        0.0043
     16 O         141.2989  143.2903  169.5843 O.2     1  UNL1       -0.2681
     17 C         140.4937  142.0292  169.6903 C.2     1  UNL1        0.2677
     18 N         140.1215  141.4883  171.0389 N.am    1  UNL1       -0.1934
     19 O         140.5545  142.2084  172.2815 O.3     1  UNL1       -0.2949
     20 H         139.5930  140.6606  171.1086 H       1  UNL1        0.1825
     21 H         141.0623  142.9980  172.0373 H       1  UNL1        0.2414
     22 C         144.8464  141.5798  164.2999 C.3     1  UNL1        0.0686
     23 N         144.5450  142.9294  164.8810 N.3     1  UNL1       -0.2983
     24 H         145.4358  143.4189  164.9661 H       1  UNL1        0.1232
     25 C         143.6061  143.8591  164.1709 C.3     1  UNL1        0.0584
     26 C         143.3736  145.0900  163.3459 C.3     1  UNL1        0.0217
     27 C         142.2125  144.2384  163.7660 C.3     1  UNL1        0.0381
     28 C         140.7376  143.9656  163.7748 C.ar    1  UNL1       -0.0212
     29 C         139.8509  144.6675  164.7603 C.ar    1  UNL1       -0.0042
     30 C         138.3760  144.3948  164.7691 C.ar    1  UNL1       -0.0003
     31 C         137.7876  143.4201  163.7923 C.ar    1  UNL1       -0.0000
     32 C         138.6743  142.7182  162.8068 C.ar    1  UNL1       -0.0003
     33 C         140.1493  142.9910  162.7981 C.ar    1  UNL1       -0.0042
@<TRIPOS>BOND
     1    16    17    2
     2    17    18   am
     3    18    19    1
     4    17    10    1
     5    10    11   ar
     6    11    12   ar
     7    12    13   ar
     8    13     9    1
     9     9     8    1
    10     8     7    1
    11     7     1    1
    12     1     2    1
    13     2     3    1
    14     3     4    1
    15     4    22    1
    16    22    23    1
    17    25    23    1
    18    25    26    1
    19    26    27    1
    20    27    28    1
    21    28    29   ar
    22    29    30   ar
    23    30    31   ar
    24    31    32   ar
    25    32    33   ar
    26     4     5    1
    27     5     6    1
    28    13    14   ar
    29    14    15   ar
    30    15    10   ar
    31     6     1    1
    32    27    25    1
    33    33    28   ar
    34    18    20    1
    35    19    21    1
    36    23    24    1
@<TRIPOS>MOLECULE
*****
 33 36 0 0 0
SMALL
GASTEIGER

@<TRIPOS>ATOM
      1 N         142.8944  141.0818  162.3476 N.3     1  UNL1       -0.2727
      2 C         141.9238  140.3369  161.4799 C.3     1  UNL1        0.0721
      3 C         140.7317  141.0457  160.9084 C.3     1  UNL1        0.0187
      4 C         140.5102  142.4994  161.2047 C.3     1  UNL1        0.0185
      5 C         141.4809  143.2443  162.0725 C.3     1  UNL1        0.0187
      6 C         142.6730  142.5355  162.6440 C.3     1  UNL1        0.0721
      7 C         144.0865  140.3730  162.9191 C.3     1  UNL1        0.0724
      8 C         144.0382  139.8319  164.3173 C.3     1  UNL1        0.0220
      9 C         142.7388  139.3489  164.8901 C.3     1  UNL1        0.0278
     10 C         140.7770  141.6176  168.2448 C.ar    1  UNL1        0.0553
     11 C         140.9236  142.2537  166.8943 C.ar    1  UNL1        0.0043
     12 C         141.5776  141.4975  165.7761 C.ar    1  UNL1       -0.0041
     13 C         142.0849  140.1051  166.0083 C.ar    1  UNL1       -0.0221
     14 C         141.9382  139.4691  167.3588 C.ar    1  UNL1       -0.0041
     15 C         141.2843  140.2253  168.4770 C.ar    1  UNL1        0.0043
     16 O         139.2848  141.6456  170.3714 O.2     1  UNL1       -0.2681
     17 C         140.1231  142.3739  169.3630 C.2     1  UNL1        0.2677
     18 N         140.3074  143.8584  169.4729 N.am    1  UNL1       -0.1934
     19 O         139.6535  144.6147  170.5911 O.3     1  UNL1       -0.2949
     20 H         140.8576  144.3365  168.8111 H       1  UNL1        0.1825
     21 H         139.1526  143.9988  171.1485 H       1  UNL1        0.2414
     22 C         139.3182  143.2082  160.6333 C.3     1  UNL1        0.0686
     23 N         137.9903  143.1200  161.3254 N.3     1  UNL1       -0.2983
     24 H         137.4451  142.4160  160.8279 H       1  UNL1        0.1232
     25 C         137.9257  142.7680  162.7821 C.3     1  UNL1        0.0584
     26 C         137.6919  143.1732  164.2073 C.3     1  UNL1        0.0217
     27 C         138.0475  141.7533  163.8800 C.3     1  UNL1        0.0381
     28 C         138.3232  140.3475  164.3249 C.ar    1  UNL1       -0.0212
     29 C         138.1514  139.9697  165.7663 C.ar    1  UNL1       -0.0042
     30 C         138.4271  138.5640  166.2112 C.ar    1  UNL1       -0.0003
     31 C         138.8745  137.5360  165.2146 C.ar    1  UNL1       -0.0000
     32 C         139.0463  137.9138  163.7731 C.ar    1  UNL1       -0.0003
     33 C         138.7706  139.3197  163.3283 C.ar    1  UNL1       -0.0042
@<TRIPOS>BOND
     1    16    17    2
     2    17    18   am
     3    18    19    1
     4    17    10    1
     5    10    11   ar
     6    11    12   ar
     7    12    13   ar
     8    13     9    1
     9     9     8    1
    10     8     7    1
    11     7     1    1
    12     1     2    1
    13     2     3    1
    14     3     4    1
    15     4    22    1
    16    22    23    1
    17    25    23    1
    18    25    26    1
    19    26    27    1
    20    27    28    1
    21    28    29   ar
    22    29    30   ar
    23    30    31   ar
    24    31    32   ar
    25    32    33   ar
    26     4     5    1
    27     5     6    1
    28    13    14   ar
    29    14    15   ar
    30    15    10   ar
    31     6     1    1
    32    27    25    1
    33    33    28   ar
    34    18    20    1
    35    19    21    1
    36    23    24    1
@<TRIPOS>MOLECULE
*****
 33 36 0 0 0
SMALL
GASTEIGER

@<TRIPOS>ATOM
      1 N         143.3996  139.6833  162.4519 N.3     1  UNL1       -0.2727
      2 C         143.0023  138.2868  162.8287 C.3     1  UNL1        0.0721
      3 C         141.6280  137.7835  162.4998 C.3     1  UNL1        0.0187
      4 C         140.6511  138.6766  161.7942 C.3     1  UNL1        0.0185
      5 C         141.0485  140.0731  161.4174 C.3     1  UNL1        0.0187
      6 C         142.4227  140.5764  161.7463 C.3     1  UNL1        0.0721
      7 C         144.7739  140.1867  162.7808 C.3     1  UNL1        0.0724
      8 C         145.0655  140.7329  164.1471 C.3     1  UNL1        0.0220
      9 C         144.1507  141.7526  164.7581 C.3     1  UNL1        0.0278
     10 C         141.6492  140.6724  168.3394 C.ar    1  UNL1        0.0553
     11 C         142.3308  142.0070  168.2756 C.ar    1  UNL1        0.0043
     12 C         143.1646  142.3671  167.0818 C.ar    1  UNL1       -0.0041
     13 C         143.3169  141.3925  165.9518 C.ar    1  UNL1       -0.0221
     14 C         142.6353  140.0579  166.0156 C.ar    1  UNL1       -0.0041
     15 C         141.8015  139.6978  167.2094 C.ar    1  UNL1        0.0043
     16 O         139.4530  139.7142  169.3436 O.2     1  UNL1       -0.2681
     17 C         140.8154  140.3123  169.5332 C.2     1  UNL1        0.2677
     18 N         141.3440  140.5504  170.9166 N.am    1  UNL1       -0.1934
     19 O         140.5102  140.1903  172.1104 O.3     1  UNL1       -0.2949
     20 H         142.2383  140.9430  171.0411 H       1  UNL1        0.1825
     21 H         139.6648  139.8184  171.8140 H       1  UNL1        0.2414
     22 C         139.2769  138.1733  161.4653 C.3     1  UNL1        0.0686
     23 N         138.1799  138.2678  162.4839 N.3     1  UNL1       -0.2983
     24 H         137.8701  137.3145  162.6723 H       1  UNL1        0.1232
     25 C         138.4449  138.9080  163.8143 C.3     1  UNL1        0.0584
     26 C         138.7295  138.7841  165.2819 C.3     1  UNL1        0.0217
     27 C         138.6194  140.1406  164.6512 C.3     1  UNL1        0.0381
     28 C         138.6565  141.6354  164.7701 C.ar    1  UNL1       -0.0212
     29 C         139.6841  142.2930  165.6428 C.ar    1  UNL1       -0.0042
     30 C         139.7212  143.7878  165.7618 C.ar    1  UNL1       -0.0003
     31 C         138.7307  144.6250  165.0081 C.ar    1  UNL1       -0.0000
     32 C         137.7031  143.9674  164.1354 C.ar    1  UNL1       -0.0003
     33 C         137.6660  142.4725  164.0164 C.ar    1  UNL1       -0.0042
@<TRIPOS>BOND
     1    16    17    2
     2    17    18   am
     3    18    19    1
     4    17    10    1
     5    10    11   ar
     6    11    12   ar
     7    12    13   ar
     8    13     9    1
     9     9     8    1
    10     8     7    1
    11     7     1    1
    12     1     2    1
    13     2     3    1
    14     3     4    1
    15     4    22    1
    16    22    23    1
    17    25    23    1
    18    25    26    1
    19    26    27    1
    20    27    28    1
    21    28    29   ar
    22    29    30   ar
    23    30    31   ar
    24    31    32   ar
    25    32    33   ar
    26     4     5    1
    27     5     6    1
    28    13    14   ar
    29    14    15   ar
    30    15    10   ar
    31     6     1    1
    32    27    25    1
    33    33    28   ar
    34    18    20    1
    35    19    21    1
    36    23    24    1
@<TRIPOS>MOLECULE
*****
 33 36 0 0 0
SMALL
GASTEIGER

@<TRIPOS>ATOM
      1 N         144.0920  139.4521  164.1299 N.3     1  UNL1       -0.2727
      2 C         143.4880  139.3254  165.4971 C.3     1  UNL1        0.0721
      3 C         142.2265  138.5371  165.6896 C.3     1  UNL1        0.0187
      4 C         141.5689  137.8754  164.5150 C.3     1  UNL1        0.0185
      5 C         142.1730  138.0021  163.1478 C.3     1  UNL1        0.0187
      6 C         143.4345  138.7904  162.9553 C.3     1  UNL1        0.0721
      7 C         145.3536  140.2404  163.9374 C.3     1  UNL1        0.0724
      8 C         145.3761  141.7075  164.2491 C.3     1  UNL1        0.0220
      9 C         144.1750  142.3620  164.8645 C.3     1  UNL1        0.0278
     10 C         141.1383  144.4064  162.2474 C.ar    1  UNL1        0.0553
     11 C         141.9293  145.2035  163.2418 C.ar    1  UNL1        0.0043
     12 C         142.9416  144.5220  164.1142 C.ar    1  UNL1       -0.0041
     13 C         143.1628  143.0435  163.9921 C.ar    1  UNL1       -0.0221
     14 C         142.3718  142.2464  162.9977 C.ar    1  UNL1       -0.0041
     15 C         141.3595  142.9278  162.1254 C.ar    1  UNL1        0.0043
     16 O         139.5094  144.3494  160.2242 O.2     1  UNL1       -0.2681
     17 C         140.1261  145.0878  161.3750 C.2     1  UNL1        0.2677
     18 N         139.7305  146.5076  161.6535 N.am    1  UNL1       -0.1934
     19 O         138.7183  147.1891  160.7811 O.3     1  UNL1       -0.2949
     20 H         140.1353  146.9923  162.4088 H       1  UNL1        0.1825
     21 H         138.4223  146.5763  160.0899 H       1  UNL1        0.2414
     22 C         140.3074  137.0871  164.7074 C.3     1  UNL1        0.0686
     23 N         138.9961  137.7976  164.8669 N.3     1  UNL1       -0.2983
     24 H         138.9488  138.1146  165.8353 H       1  UNL1        0.1232
     25 C         138.6764  138.9842  164.0067 C.3     1  UNL1        0.0584
     26 C         138.2243  139.5534  162.6947 C.3     1  UNL1        0.0217
     27 C         138.5750  140.4702  163.8289 C.3     1  UNL1        0.0381
     28 C         138.7188  141.8573  164.3812 C.ar    1  UNL1       -0.0212
     29 C         139.7349  142.1381  165.4482 C.ar    1  UNL1       -0.0042
     30 C         139.8788  143.5253  166.0005 C.ar    1  UNL1       -0.0003
     31 C         139.0065  144.6318  165.4857 C.ar    1  UNL1       -0.0000
     32 C         137.9904  144.3509  164.4186 C.ar    1  UNL1       -0.0003
     33 C         137.8465  142.9637  163.8663 C.ar    1  UNL1       -0.0042
@<TRIPOS>BOND
     1    16    17    2
     2    17    18   am
     3    18    19    1
     4    17    10    1
     5    10    11   ar
     6    11    12   ar
     7    12    13   ar
     8    13     9    1
     9     9     8    1
    10     8     7    1
    11     7     1    1
    12     1     2    1
    13     2     3    1
    14     3     4    1
    15     4    22    1
    16    22    23    1
    17    25    23    1
    18    25    26    1
    19    26    27    1
    20    27    28    1
    21    28    29   ar
    22    29    30   ar
    23    30    31   ar
    24    31    32   ar
    25    32    33   ar
    26     4     5    1
    27     5     6    1
    28    13    14   ar
    29    14    15   ar
    30    15    10   ar
    31     6     1    1
    32    27    25    1
    33    33    28   ar
    34    18    20    1
    35    19    21    1
    36    23    24    1
