@<TRIPOS>MOLECULE
*****
 38 42 0 0 0
SMALL
GASTEIGER

@<TRIPOS>ATOM
      1 C         142.5837  138.8724  159.0868 C.3     1  UNL1        0.0666
      2 S         143.1103  137.9357  160.1333 S.3     1  UNL1       -0.0756
      3 C         142.4479  138.8358  163.8505 C.ar    1  UNL1        0.1432
      4 N         141.4689  137.7182  163.6439 N.ar    1  UNL1       -0.1328
      5 N         141.5979  137.2450  162.2263 N.ar    1  UNL1       -0.1224
      6 C         142.6566  138.0702  161.5568 C.ar    1  UNL1        0.1930
      7 N         143.1820  139.0533  162.5605 N.ar    1  UNL1       -0.2918
      8 C         144.2533  140.0746  162.3170 C.3     1  UNL1        0.1337
      9 C         143.0730  141.1325  167.6694 C.3     1  UNL1        0.0716
     10 C         143.2582  141.8136  166.3457 C.3     1  UNL1        0.0200
     11 C         143.0498  141.0480  165.0728 C.3     1  UNL1        0.0092
     12 C         142.6563  139.6014  165.1234 C.3     1  UNL1        0.0589
     13 C         142.4712  138.9204  166.4470 C.3     1  UNL1        0.0092
     14 C         142.6795  139.6860  167.7200 C.3     1  UNL1        0.0200
     15 C         142.3917  143.5295  170.7581 C.3     1  UNL1        0.0946
     16 C         142.1833  142.7639  169.4852 C.2     1  UNL1        0.2229
     17 O         140.8768  142.8641  168.7551 O.2     1  UNL1       -0.2751
     18 N         143.2814  141.8981  168.9423 N.am    1  UNL1       -0.3060
     19 H         144.1389  141.8324  169.4215 H       1  UNL1        0.1494
     20 C         141.6227  139.9592  159.4681 C.3     1  UNL1        0.0294
     21 C         142.0233  141.3979  159.3279 C.3     1  UNL1        0.0730
     22 N         141.6654  142.3840  160.4000 N.3     1  UNL1       -0.2726
     23 C         141.9350  143.8592  160.3667 C.3     1  UNL1        0.0721
     24 C         141.4112  144.4550  161.6397 C.3     1  UNL1        0.0190
     25 C         140.8178  143.3480  162.4598 C.3     1  UNL1        0.0201
     26 C         140.3998  144.2130  163.6118 C.3     1  UNL1        0.0061
     27 C         140.1301  142.7378  163.6451 C.3     1  UNL1        0.0237
     28 C         140.9749  142.0681  161.6936 C.3     1  UNL1        0.0724
     29 C         139.5774  141.5338  164.3485 C.ar    1  UNL1       -0.0225
     30 C         139.0232  140.3891  163.5532 C.ar    1  UNL1       -0.0043
     31 C         138.4705  139.1851  164.2567 C.ar    1  UNL1        0.0035
     32 C         138.4720  139.1258  165.7555 C.ar    1  UNL1        0.0714
     33 C         139.0263  140.2705  166.5509 C.ar    1  UNL1        0.0035
     34 C         139.5790  141.4745  165.8474 C.ar    1  UNL1       -0.0043
     35 C         137.9194  137.9218  166.4590 C.3     1  UNL1        0.4186
     36 F         137.3666  136.7178  167.1626 F       1  UNL1       -0.1659
     37 F         138.4667  137.0385  165.3773 F       1  UNL1       -0.1659
     38 F         137.3720  138.8052  167.5407 F       1  UNL1       -0.1659
@<TRIPOS>BOND
     1    15    16    1
     2    16    17    2
     3    16    18   am
     4    18     9    1
     5     9    10    1
     6    10    11    1
     7    11    12    1
     8    12     3    1
     9     3     4   ar
    10     4     5   ar
    11     5     6   ar
    12     6     2    1
    13     2     1    1
    14     1    20    1
    15    20    21    1
    16    21    22    1
    17    22    23    1
    18    23    24    1
    19    25    24    1
    20    25    26    1
    21    26    27    1
    22    27    29    1
    23    29    30   ar
    24    30    31   ar
    25    31    32   ar
    26    32    35    1
    27    35    36    1
    28    35    37    1
    29    35    38    1
    30    32    33   ar
    31    33    34   ar
    32    25    28    1
    33     6     7   ar
    34     7     8    1
    35    12    13    1
    36    13    14    1
    37    14     9    1
    38     7     3   ar
    39    28    22    1
    40    27    25    1
    41    34    29   ar
    42    18    19    1
@<TRIPOS>MOLECULE
*****
 38 42 0 0 0
SMALL
GASTEIGER

@<TRIPOS>ATOM
      1 C         142.7996  141.2960  159.3028 C.3     1  UNL1        0.0666
      2 S         143.4298  140.2512  160.1752 S.3     1  UNL1       -0.0756
      3 C         143.8801  140.9156  163.9728 C.ar    1  UNL1        0.1432
      4 N         145.2094  141.3625  163.4406 N.ar    1  UNL1       -0.1328
      5 N         145.2025  141.1680  161.9533 N.ar    1  UNL1       -0.1224
      6 C         143.8689  140.6009  161.5662 C.ar    1  UNL1        0.1930
      7 N         143.0516  140.4449  162.8142 N.ar    1  UNL1       -0.2918
      8 C         141.6516  139.9118  162.8904 C.3     1  UNL1        0.1337
      9 C         142.6019  140.9765  168.2870 C.3     1  UNL1        0.0716
     10 C         142.6912  139.6732  167.5495 C.3     1  UNL1        0.0200
     11 C         143.1172  139.6530  166.1114 C.3     1  UNL1        0.0092
     12 C         143.4540  140.9359  165.4108 C.3     1  UNL1        0.0589
     13 C         143.3648  142.2390  166.1483 C.3     1  UNL1        0.0092
     14 C         142.9387  142.2593  167.5864 C.3     1  UNL1        0.0200
     15 C         140.5517  141.8178  171.5792 C.3     1  UNL1        0.0946
     16 C         140.9777  141.7976  170.1411 C.2     1  UNL1        0.2229
     17 O         140.2056  142.5782  169.1192 O.2     1  UNL1       -0.2751
     18 N         142.1759  140.9967  169.7250 N.am    1  UNL1       -0.3060
     19 H         142.6826  140.4844  170.3958 H       1  UNL1        0.1494
     20 C         141.4134  141.7856  159.6008 C.3     1  UNL1        0.0294
     21 C         141.1125  143.2546  159.5635 C.3     1  UNL1        0.0730
     22 N         140.6995  143.9677  160.8168 N.3     1  UNL1       -0.2726
     23 C         140.7517  145.4491  161.0464 C.3     1  UNL1        0.0721
     24 C         140.2462  145.7214  162.4321 C.3     1  UNL1        0.0190
     25 C         139.8816  144.4084  163.0590 C.3     1  UNL1        0.0201
     26 C         139.4328  144.9803  164.3711 C.3     1  UNL1        0.0061
     27 C         139.3805  143.4989  164.1415 C.3     1  UNL1        0.0237
     28 C         140.1617  143.3245  162.0607 C.3     1  UNL1        0.0724
     29 C         139.0611  142.1185  164.6339 C.ar    1  UNL1       -0.0225
     30 C         139.6586  141.6231  165.9175 C.ar    1  UNL1       -0.0043
     31 C         139.3391  140.2427  166.4099 C.ar    1  UNL1        0.0035
     32 C         138.4222  139.3577  165.6187 C.ar    1  UNL1        0.0714
     33 C         137.8248  139.8531  164.3351 C.ar    1  UNL1        0.0035
     34 C         138.1442  141.2335  163.8427 C.ar    1  UNL1       -0.0043
     35 C         138.1028  137.9773  166.1111 C.3     1  UNL1        0.4186
     36 F         137.7833  136.5969  166.6035 F       1  UNL1       -0.1659
     37 F         138.8458  137.3904  164.9477 F       1  UNL1       -0.1659
     38 F         137.3598  138.5643  167.2745 F       1  UNL1       -0.1659
@<TRIPOS>BOND
     1    15    16    1
     2    16    17    2
     3    16    18   am
     4    18     9    1
     5     9    10    1
     6    10    11    1
     7    11    12    1
     8    12     3    1
     9     3     4   ar
    10     4     5   ar
    11     5     6   ar
    12     6     2    1
    13     2     1    1
    14     1    20    1
    15    20    21    1
    16    21    22    1
    17    22    23    1
    18    23    24    1
    19    25    24    1
    20    25    26    1
    21    26    27    1
    22    27    29    1
    23    29    30   ar
    24    30    31   ar
    25    31    32   ar
    26    32    35    1
    27    35    36    1
    28    35    37    1
    29    35    38    1
    30    32    33   ar
    31    33    34   ar
    32    25    28    1
    33     6     7   ar
    34     7     8    1
    35    12    13    1
    36    13    14    1
    37    14     9    1
    38     7     3   ar
    39    28    22    1
    40    27    25    1
    41    34    29   ar
    42    18    19    1
@<TRIPOS>MOLECULE
*****
 38 42 0 0 0
SMALL
GASTEIGER

@<TRIPOS>ATOM
      1 C         142.6666  143.1551  158.2752 C.3     1  UNL1        0.0666
      2 S         143.9180  142.3445  158.4391 S.3     1  UNL1       -0.0756
      3 C         143.8581  139.9186  161.4685 C.ar    1  UNL1        0.1432
      4 N         144.1380  138.9686  160.3418 N.ar    1  UNL1       -0.1328
      5 N         144.1945  139.7617  159.0699 N.ar    1  UNL1       -0.1224
      6 C         143.9495  141.2019  159.4104 C.ar    1  UNL1        0.1930
      7 N         143.7416  141.2989  160.8928 N.ar    1  UNL1       -0.2918
      8 C         143.4656  142.5554  161.6640 C.3     1  UNL1        0.1337
      9 C         143.4411  138.8205  165.8124 C.3     1  UNL1        0.0716
     10 C         142.2497  138.7513  164.9037 C.3     1  UNL1        0.0200
     11 C         142.3887  139.1173  163.4557 C.3     1  UNL1        0.0092
     12 C         143.7190  139.5526  162.9165 C.3     1  UNL1        0.0589
     13 C         144.9104  139.6218  163.8252 C.3     1  UNL1        0.0092
     14 C         144.7715  139.2558  165.2732 C.3     1  UNL1        0.0200
     15 C         142.5906  139.0772  169.6804 C.3     1  UNL1        0.0946
     16 C         142.7296  139.4433  168.2324 C.2     1  UNL1        0.2229
     17 O         142.2962  140.7980  167.7564 O.2     1  UNL1       -0.2751
     18 N         143.3021  138.4545  167.2604 N.am    1  UNL1       -0.3060
     19 H         143.5866  137.5653  167.5729 H       1  UNL1        0.1494
     20 C         141.3330  142.5498  158.5994 C.3     1  UNL1        0.0294
     21 C         140.1832  143.4317  158.9870 C.3     1  UNL1        0.0730
     22 N         140.1650  144.0916  160.3340 N.3     1  UNL1       -0.2726
     23 C         140.4326  145.5417  160.6091 C.3     1  UNL1        0.0721
     24 C         140.3089  145.7634  162.0874 C.3     1  UNL1        0.0190
     25 C         139.9650  144.4504  162.7260 C.3     1  UNL1        0.0201
     26 C         139.9109  144.9694  164.1323 C.3     1  UNL1        0.0061
     27 C         139.6433  143.5193  163.8572 C.3     1  UNL1        0.0237
     28 C         139.8760  143.4172  161.6423 C.3     1  UNL1        0.0724
     29 C         139.3032  142.1446  164.3514 C.ar    1  UNL1       -0.0225
     30 C         139.5387  141.7846  165.7885 C.ar    1  UNL1       -0.0043
     31 C         139.1986  140.4098  166.2827 C.ar    1  UNL1        0.0035
     32 C         138.6229  139.3951  165.3399 C.ar    1  UNL1        0.0714
     33 C         138.3874  139.7550  163.9029 C.ar    1  UNL1        0.0035
     34 C         138.7275  141.1298  163.4087 C.ar    1  UNL1       -0.0043
     35 C         138.2827  138.0203  165.8342 C.3     1  UNL1        0.4186
     36 F         137.9425  136.6455  166.3285 F       1  UNL1       -0.1659
     37 F         138.6172  137.4530  164.4865 F       1  UNL1       -0.1659
     38 F         137.9483  138.5876  167.1819 F       1  UNL1       -0.1659
@<TRIPOS>BOND
     1    15    16    1
     2    16    17    2
     3    16    18   am
     4    18     9    1
     5     9    10    1
     6    10    11    1
     7    11    12    1
     8    12     3    1
     9     3     4   ar
    10     4     5   ar
    11     5     6   ar
    12     6     2    1
    13     2     1    1
    14     1    20    1
    15    20    21    1
    16    21    22    1
    17    22    23    1
    18    23    24    1
    19    25    24    1
    20    25    26    1
    21    26    27    1
    22    27    29    1
    23    29    30   ar
    24    30    31   ar
    25    31    32   ar
    26    32    35    1
    27    35    36    1
    28    35    37    1
    29    35    38    1
    30    32    33   ar
    31    33    34   ar
    32    25    28    1
    33     6     7   ar
    34     7     8    1
    35    12    13    1
    36    13    14    1
    37    14     9    1
    38     7     3   ar
    39    28    22    1
    40    27    25    1
    41    34    29   ar
    42    18    19    1
@<TRIPOS>MOLECULE
*****
 38 42 0 0 0
SMALL
GASTEIGER

@<TRIPOS>ATOM
      1 C         141.0703  145.0749  158.9817 C.3     1  UNL1        0.0666
      2 S         140.3024  145.5015  160.1975 S.3     1  UNL1       -0.0756
      3 C         140.0720  143.1329  163.2639 C.ar    1  UNL1        0.1432
      4 N         138.8130  142.7792  162.5291 N.ar    1  UNL1       -0.1328
      5 N         138.7460  143.6235  161.2910 N.ar    1  UNL1       -0.1224
      6 C         139.9637  144.4989  161.2606 C.ar    1  UNL1        0.1930
      7 N         140.7831  144.1958  162.4798 N.ar    1  UNL1       -0.2918
      8 C         142.0852  144.8420  162.8501 C.3     1  UNL1        0.1337
      9 C         141.4698  141.3234  167.1396 C.3     1  UNL1        0.0716
     10 C         142.0217  140.8247  165.8369 C.3     1  UNL1        0.0200
     11 C         141.5557  141.4279  164.5450 C.3     1  UNL1        0.0092
     12 C         140.5379  142.5297  164.5558 C.3     1  UNL1        0.0589
     13 C         139.9861  143.0284  165.8583 C.3     1  UNL1        0.0092
     14 C         140.4520  142.4252  167.1503 C.3     1  UNL1        0.0200
     15 C         141.4437  139.3403  170.5771 C.3     1  UNL1        0.0946
     16 C         140.9777  139.9435  169.2852 C.2     1  UNL1        0.2229
     17 O         139.5536  139.7700  168.8471 O.2     1  UNL1       -0.2751
     18 N         141.9357  140.7202  168.4315 N.am    1  UNL1       -0.3060
     19 H         142.8704  140.8340  168.7191 H       1  UNL1        0.1494
     20 C         141.4177  143.6292  158.7831 C.3     1  UNL1        0.0294
     21 C         142.5277  143.0084  159.5783 C.3     1  UNL1        0.0730
     22 N         142.7331  141.5229  159.5467 N.3     1  UNL1       -0.2726
     23 C         143.5783  140.7704  158.5622 C.3     1  UNL1        0.0721
     24 C         143.4968  139.3115  158.9011 C.3     1  UNL1        0.0190
     25 C         142.6012  139.1623  160.0951 C.3     1  UNL1        0.0201
     26 C         142.7118  137.6693  160.1885 C.3     1  UNL1        0.0061
     27 C         141.8665  138.4218  161.1730 C.3     1  UNL1        0.0237
     28 C         142.1292  140.5290  160.4941 C.3     1  UNL1        0.0724
     29 C         140.9543  138.4287  162.3638 C.ar    1  UNL1       -0.0225
     30 C         139.6494  139.1661  162.3046 C.ar    1  UNL1       -0.0043
     31 C         138.7372  139.1730  163.4953 C.ar    1  UNL1        0.0035
     32 C         139.1300  138.4425  164.7452 C.ar    1  UNL1        0.0714
     33 C         140.4349  137.7052  164.8043 C.ar    1  UNL1        0.0035
     34 C         141.3471  137.6983  163.6136 C.ar    1  UNL1       -0.0043
     35 C         138.2178  138.4495  165.9359 C.3     1  UNL1        0.4186
     36 F         137.3056  138.4564  167.1267 F       1  UNL1       -0.1659
     37 F         138.2454  139.9491  165.9484 F       1  UNL1       -0.1659
     38 F         138.1902  136.9498  165.9235 F       1  UNL1       -0.1659
@<TRIPOS>BOND
     1    15    16    1
     2    16    17    2
     3    16    18   am
     4    18     9    1
     5     9    10    1
     6    10    11    1
     7    11    12    1
     8    12     3    1
     9     3     4   ar
    10     4     5   ar
    11     5     6   ar
    12     6     2    1
    13     2     1    1
    14     1    20    1
    15    20    21    1
    16    21    22    1
    17    22    23    1
    18    23    24    1
    19    25    24    1
    20    25    26    1
    21    26    27    1
    22    27    29    1
    23    29    30   ar
    24    30    31   ar
    25    31    32   ar
    26    32    35    1
    27    35    36    1
    28    35    37    1
    29    35    38    1
    30    32    33   ar
    31    33    34   ar
    32    25    28    1
    33     6     7   ar
    34     7     8    1
    35    12    13    1
    36    13    14    1
    37    14     9    1
    38     7     3   ar
    39    28    22    1
    40    27    25    1
    41    34    29   ar
    42    18    19    1
@<TRIPOS>MOLECULE
*****
 38 42 0 0 0
SMALL
GASTEIGER

@<TRIPOS>ATOM
      1 C         138.1925  140.3257  159.0468 C.3     1  UNL1        0.0666
      2 S         137.5731  140.0361  160.3819 S.3     1  UNL1       -0.0756
      3 C         138.7145  141.6455  163.7245 C.ar    1  UNL1        0.1432
      4 N         138.0843  142.8206  163.0373 N.ar    1  UNL1       -0.1328
      5 N         137.5800  142.3607  161.7015 N.ar    1  UNL1       -0.1224
      6 C         137.8985  140.9014  161.5631 C.ar    1  UNL1        0.1930
      7 N         138.5997  140.4594  162.8133 N.ar    1  UNL1       -0.2918
      8 C         139.0985  139.0745  163.1018 C.3     1  UNL1        0.1337
      9 C         140.6157  141.6740  167.8030 C.3     1  UNL1        0.0716
     10 C         140.3046  140.3701  167.1296 C.3     1  UNL1        0.0200
     11 C         139.6709  140.3607  165.7701 C.3     1  UNL1        0.0092
     12 C         139.3482  141.6550  165.0840 C.3     1  UNL1        0.0589
     13 C         139.6592  142.9587  165.7574 C.3     1  UNL1        0.0092
     14 C         140.2930  142.9682  167.1169 C.3     1  UNL1        0.0200
     15 C         141.0382  141.4908  171.7448 C.3     1  UNL1        0.0946
     16 C         140.4044  141.4814  170.3853 C.2     1  UNL1        0.2229
     17 O         138.9257  141.2699  170.2486 O.2     1  UNL1       -0.2751
     18 N         141.2494  141.6834  169.1625 N.am    1  UNL1       -0.3060
     19 H         142.2199  141.8222  169.2523 H       1  UNL1        0.1494
     20 C         139.6497  140.6693  158.9548 C.3     1  UNL1        0.0294
     21 C         140.0705  142.0515  158.5520 C.3     1  UNL1        0.0730
     22 N         140.4341  143.0604  159.6007 N.3     1  UNL1       -0.2726
     23 C         140.1895  144.5384  159.5248 C.3     1  UNL1        0.0721
     24 C         140.7104  145.1598  160.7867 C.3     1  UNL1        0.0190
     25 C         141.2769  144.0659  161.6426 C.3     1  UNL1        0.0201
     26 C         141.6978  144.9549  162.7751 C.3     1  UNL1        0.0061
     27 C         141.9424  143.4769  162.8510 C.3     1  UNL1        0.0237
     28 C         141.1062  142.7684  160.9096 C.3     1  UNL1        0.0724
     29 C         142.4677  142.2836  163.5925 C.ar    1  UNL1       -0.0225
     30 C         143.1409  142.4627  164.9210 C.ar    1  UNL1       -0.0043
     31 C         143.6663  141.2694  165.6625 C.ar    1  UNL1        0.0035
     32 C         143.5185  139.8969  165.0756 C.ar    1  UNL1        0.0714
     33 C         142.8454  139.7178  163.7471 C.ar    1  UNL1        0.0035
     34 C         142.3200  140.9112  163.0056 C.ar    1  UNL1       -0.0043
     35 C         144.0439  138.7036  165.8171 C.3     1  UNL1        0.4186
     36 F         144.5694  137.5102  166.5586 F       1  UNL1       -0.1659
     37 F         142.7220  138.5519  166.5096 F       1  UNL1       -0.1659
     38 F         145.3658  138.8552  165.1245 F       1  UNL1       -0.1659
@<TRIPOS>BOND
     1    15    16    1
     2    16    17    2
     3    16    18   am
     4    18     9    1
     5     9    10    1
     6    10    11    1
     7    11    12    1
     8    12     3    1
     9     3     4   ar
    10     4     5   ar
    11     5     6   ar
    12     6     2    1
    13     2     1    1
    14     1    20    1
    15    20    21    1
    16    21    22    1
    17    22    23    1
    18    23    24    1
    19    25    24    1
    20    25    26    1
    21    26    27    1
    22    27    29    1
    23    29    30   ar
    24    30    31   ar
    25    31    32   ar
    26    32    35    1
    27    35    36    1
    28    35    37    1
    29    35    38    1
    30    32    33   ar
    31    33    34   ar
    32    25    28    1
    33     6     7   ar
    34     7     8    1
    35    12    13    1
    36    13    14    1
    37    14     9    1
    38     7     3   ar
    39    28    22    1
    40    27    25    1
    41    34    29   ar
    42    18    19    1
@<TRIPOS>MOLECULE
*****
 38 42 0 0 0
SMALL
GASTEIGER

@<TRIPOS>ATOM
      1 C         138.4667  141.1283  159.5711 C.3     1  UNL1        0.0666
      2 S         138.4580  142.5532  160.0394 S.3     1  UNL1       -0.0756
      3 C         140.5725  143.1368  163.2416 C.ar    1  UNL1        0.1432
      4 N         141.1191  144.2000  162.3355 N.ar    1  UNL1       -0.1328
      5 N         140.3935  144.1108  161.0257 N.ar    1  UNL1       -0.1224
      6 C         139.3985  142.9924  161.1223 C.ar    1  UNL1        0.1930
      7 N         139.5091  142.3905  162.4917 N.ar    1  UNL1       -0.2918
      8 C         138.6986  141.2436  163.0188 C.3     1  UNL1        0.1337
      9 C         141.8913  142.3283  167.4674 C.3     1  UNL1        0.0716
     10 C         142.8763  142.2220  166.3410 C.3     1  UNL1        0.0200
     11 C         142.4367  142.4915  164.9324 C.3     1  UNL1        0.0092
     12 C         141.0122  142.8673  164.6502 C.3     1  UNL1        0.0589
     13 C         140.0273  142.9735  165.7765 C.3     1  UNL1        0.0092
     14 C         140.4668  142.7040  167.1852 C.3     1  UNL1        0.0200
     15 C         142.2473  140.5893  171.0169 C.3     1  UNL1        0.0946
     16 C         141.8077  140.8588  169.6083 C.2     1  UNL1        0.2229
     17 O         140.8448  139.9284  168.9322 O.2     1  UNL1       -0.2751
     18 N         142.3309  142.0587  168.8759 N.am    1  UNL1       -0.3060
     19 H         142.9629  142.6694  169.3197 H       1  UNL1        0.1494
     20 C         139.3949  140.7060  158.4709 C.3     1  UNL1        0.0294
     21 C         140.8361  141.1205  158.5051 C.3     1  UNL1        0.0730
     22 N         141.8319  140.3086  159.2793 N.3     1  UNL1       -0.2726
     23 C         143.2201  139.9568  158.8331 C.3     1  UNL1        0.0721
     24 C         143.8603  139.1367  159.9136 C.3     1  UNL1        0.0190
     25 C         142.8678  138.9817  161.0276 C.3     1  UNL1        0.0201
     26 C         143.7543  138.1581  161.9140 C.3     1  UNL1        0.0061
     27 C         142.3661  138.5099  162.3602 C.3     1  UNL1        0.0237
     28 C         141.6141  139.7060  160.6355 C.3     1  UNL1        0.0724
     29 C         141.2750  138.4406  163.3871 C.ar    1  UNL1       -0.0225
     30 C         140.0369  137.6394  163.1130 C.ar    1  UNL1       -0.0043
     31 C         138.9457  137.5701  164.1399 C.ar    1  UNL1        0.0035
     32 C         139.0927  138.3021  165.4409 C.ar    1  UNL1        0.0714
     33 C         140.3308  139.1033  165.7150 C.ar    1  UNL1        0.0035
     34 C         141.4220  139.1726  164.6881 C.ar    1  UNL1       -0.0043
     35 C         138.0016  138.2328  166.4679 C.3     1  UNL1        0.4186
     36 F         136.9104  138.1636  167.4948 F       1  UNL1       -0.1659
     37 F         137.8832  136.7546  166.2423 F       1  UNL1       -0.1659
     38 F         138.1200  139.7110  166.6934 F       1  UNL1       -0.1659
@<TRIPOS>BOND
     1    15    16    1
     2    16    17    2
     3    16    18   am
     4    18     9    1
     5     9    10    1
     6    10    11    1
     7    11    12    1
     8    12     3    1
     9     3     4   ar
    10     4     5   ar
    11     5     6   ar
    12     6     2    1
    13     2     1    1
    14     1    20    1
    15    20    21    1
    16    21    22    1
    17    22    23    1
    18    23    24    1
    19    25    24    1
    20    25    26    1
    21    26    27    1
    22    27    29    1
    23    29    30   ar
    24    30    31   ar
    25    31    32   ar
    26    32    35    1
    27    35    36    1
    28    35    37    1
    29    35    38    1
    30    32    33   ar
    31    33    34   ar
    32    25    28    1
    33     6     7   ar
    34     7     8    1
    35    12    13    1
    36    13    14    1
    37    14     9    1
    38     7     3   ar
    39    28    22    1
    40    27    25    1
    41    34    29   ar
    42    18    19    1
@<TRIPOS>MOLECULE
*****
 38 42 0 0 0
SMALL
GASTEIGER

@<TRIPOS>ATOM
      1 C         140.0451  145.3509  162.9882 C.3     1  UNL1        0.0666
      2 S         139.9683  144.9152  161.5549 S.3     1  UNL1       -0.0756
      3 C         140.1084  141.2578  160.2628 C.ar    1  UNL1        0.1432
      4 N         138.9006  141.2056  161.1508 N.ar    1  UNL1       -0.1328
      5 N         138.7011  142.5692  161.7429 N.ar    1  UNL1       -0.1224
      6 C         139.7856  143.4644  161.2208 C.ar    1  UNL1        0.1930
      7 N         140.6554  142.6539  160.3061 N.ar    1  UNL1       -0.2918
      8 C         141.8605  143.1521  159.5648 C.3     1  UNL1        0.1337
      9 C         141.7944  137.8288  157.8862 C.3     1  UNL1        0.0716
     10 C         142.4773  138.2766  159.1445 C.3     1  UNL1        0.0200
     11 C         141.9152  139.4197  159.9367 C.3     1  UNL1        0.0092
     12 C         140.6704  140.1148  159.4706 C.3     1  UNL1        0.0589
     13 C         139.9876  139.6669  158.2124 C.3     1  UNL1        0.0092
     14 C         140.5496  138.5239  157.4201 C.3     1  UNL1        0.0200
     15 C         144.0913  135.7648  155.3933 C.3     1  UNL1        0.0946
     16 C         143.5292  136.9078  156.1855 C.2     1  UNL1        0.2229
     17 O         144.1399  138.2729  156.0691 O.2     1  UNL1       -0.2751
     18 N         142.3565  136.6857  157.0940 N.am    1  UNL1       -0.3060
     19 H         141.9557  135.7898  157.1704 H       1  UNL1        0.1494
     20 C         141.2557  145.0187  163.8092 C.3     1  UNL1        0.0294
     21 C         142.6006  144.9123  163.1535 C.3     1  UNL1        0.0730
     22 N         143.2260  143.5659  162.9391 N.3     1  UNL1       -0.2726
     23 C         144.5180  143.2974  162.2259 C.3     1  UNL1        0.0721
     24 C         144.7597  141.8172  162.2463 C.3     1  UNL1        0.0190
     25 C         143.6172  141.1708  162.9721 C.3     1  UNL1        0.0201
     26 C         144.1197  139.7642  162.8348 C.3     1  UNL1        0.0061
     27 C         142.8277  140.0327  163.5479 C.3     1  UNL1        0.0237
     28 C         142.6693  142.2516  163.4003 C.3     1  UNL1        0.0724
     29 C         141.6260  139.5307  164.2921 C.ar    1  UNL1       -0.0225
     30 C         141.2798  140.1066  165.6333 C.ar    1  UNL1       -0.0043
     31 C         140.0781  139.6045  166.3775 C.ar    1  UNL1        0.0035
     32 C         139.2226  138.5267  165.7806 C.ar    1  UNL1        0.0714
     33 C         139.5688  137.9508  164.4394 C.ar    1  UNL1        0.0035
     34 C         140.7705  138.4528  163.6952 C.ar    1  UNL1       -0.0043
     35 C         138.0209  138.0246  166.5248 C.3     1  UNL1        0.4186
     36 F         136.8191  137.5226  167.2690 F       1  UNL1       -0.1659
     37 F         138.0692  136.7468  165.7407 F       1  UNL1       -0.1659
     38 F         137.9726  139.3025  167.3088 F       1  UNL1       -0.1659
@<TRIPOS>BOND
     1    15    16    1
     2    16    17    2
     3    16    18   am
     4    18     9    1
     5     9    10    1
     6    10    11    1
     7    11    12    1
     8    12     3    1
     9     3     4   ar
    10     4     5   ar
    11     5     6   ar
    12     6     2    1
    13     2     1    1
    14     1    20    1
    15    20    21    1
    16    21    22    1
    17    22    23    1
    18    23    24    1
    19    25    24    1
    20    25    26    1
    21    26    27    1
    22    27    29    1
    23    29    30   ar
    24    30    31   ar
    25    31    32   ar
    26    32    35    1
    27    35    36    1
    28    35    37    1
    29    35    38    1
    30    32    33   ar
    31    33    34   ar
    32    25    28    1
    33     6     7   ar
    34     7     8    1
    35    12    13    1
    36    13    14    1
    37    14     9    1
    38     7     3   ar
    39    28    22    1
    40    27    25    1
    41    34    29   ar
    42    18    19    1
@<TRIPOS>MOLECULE
*****
 38 42 0 0 0
SMALL
GASTEIGER

@<TRIPOS>ATOM
      1 C         143.3456  142.2411  157.8848 C.3     1  UNL1        0.0666
      2 S         144.1974  141.8528  159.0568 S.3     1  UNL1       -0.0756
      3 C         143.2975  142.3432  162.8006 C.ar    1  UNL1        0.1432
      4 N         143.2708  143.7598  162.3080 N.ar    1  UNL1       -0.1328
      5 N         143.6046  143.7485  160.8457 N.ar    1  UNL1       -0.1224
      6 C         143.8377  142.3249  160.4344 C.ar    1  UNL1        0.1930
      7 N         143.6479  141.4564  161.6426 N.ar    1  UNL1       -0.2918
      8 C         143.7845  139.9632  161.6853 C.3     1  UNL1        0.1337
      9 C         142.4715  140.9911  167.0124 C.3     1  UNL1        0.0716
     10 C         143.1255  142.3184  166.7654 C.3     1  UNL1        0.0200
     11 C         143.4008  142.7690  165.3614 C.3     1  UNL1        0.0092
     12 C         143.0222  141.8925  164.2045 C.3     1  UNL1        0.0589
     13 C         142.3683  140.5654  164.4515 C.3     1  UNL1        0.0092
     14 C         142.0930  140.1146  165.8555 C.3     1  UNL1        0.0200
     15 C         142.4571  138.7754  170.3048 C.3     1  UNL1        0.0946
     16 C         142.7324  139.2260  168.9009 C.2     1  UNL1        0.2229
     17 O         143.5438  138.3622  167.9815 O.2     1  UNL1       -0.2751
     18 N         142.1962  140.5405  168.4164 N.am    1  UNL1       -0.3060
     19 H         141.6637  141.1074  169.0198 H       1  UNL1        0.1494
     20 C         141.9872  141.6294  157.7096 C.3     1  UNL1        0.0294
     21 C         140.7637  142.4964  157.7470 C.3     1  UNL1        0.0730
     22 N         140.5129  143.3892  158.9260 N.3     1  UNL1       -0.2726
     23 C         140.6140  144.8858  158.9360 C.3     1  UNL1        0.0721
     24 C         140.2805  145.3636  160.3181 C.3     1  UNL1        0.0190
     25 C         139.9732  144.1624  161.1624 C.3     1  UNL1        0.0201
     26 C         139.6916  144.9247  162.4231 C.3     1  UNL1        0.0061
     27 C         139.5905  143.4281  162.4131 C.3     1  UNL1        0.0237
     28 C         140.1168  142.9421  160.3019 C.3     1  UNL1        0.0724
     29 C         139.3111  142.1402  163.1294 C.ar    1  UNL1       -0.0225
     30 C         139.4556  140.8336  162.4070 C.ar    1  UNL1       -0.0043
     31 C         139.1762  139.5456  163.1233 C.ar    1  UNL1        0.0035
     32 C         138.7524  139.5643  164.5621 C.ar    1  UNL1        0.0714
     33 C         138.6079  140.8710  165.2845 C.ar    1  UNL1        0.0035
     34 C         138.8872  142.1589  164.5682 C.ar    1  UNL1       -0.0043
     35 C         138.4730  138.2764  165.2784 C.3     1  UNL1        0.4186
     36 F         138.1936  136.9884  165.9947 F       1  UNL1       -0.1659
     37 F         137.5745  139.0032  166.2347 F       1  UNL1       -0.1659
     38 F         139.3715  137.5496  164.3221 F       1  UNL1       -0.1659
@<TRIPOS>BOND
     1    15    16    1
     2    16    17    2
     3    16    18   am
     4    18     9    1
     5     9    10    1
     6    10    11    1
     7    11    12    1
     8    12     3    1
     9     3     4   ar
    10     4     5   ar
    11     5     6   ar
    12     6     2    1
    13     2     1    1
    14     1    20    1
    15    20    21    1
    16    21    22    1
    17    22    23    1
    18    23    24    1
    19    25    24    1
    20    25    26    1
    21    26    27    1
    22    27    29    1
    23    29    30   ar
    24    30    31   ar
    25    31    32   ar
    26    32    35    1
    27    35    36    1
    28    35    37    1
    29    35    38    1
    30    32    33   ar
    31    33    34   ar
    32    25    28    1
    33     6     7   ar
    34     7     8    1
    35    12    13    1
    36    13    14    1
    37    14     9    1
    38     7     3   ar
    39    28    22    1
    40    27    25    1
    41    34    29   ar
    42    18    19    1
@<TRIPOS>MOLECULE
*****
 38 42 0 0 0
SMALL
GASTEIGER

@<TRIPOS>ATOM
      1 C         140.1091  140.7445  157.6554 C.3     1  UNL1        0.0666
      2 S         141.0497  139.5774  157.6003 S.3     1  UNL1       -0.0756
      3 C         142.8361  139.0137  160.9998 C.ar    1  UNL1        0.1432
      4 N         143.9566  138.7541  160.0369 N.ar    1  UNL1       -0.1328
      5 N         143.4238  138.9336  158.6463 N.ar    1  UNL1       -0.1224
      6 C         141.9740  139.3043  158.7497 C.ar    1  UNL1        0.1930
      7 N         141.6107  139.3538  160.2042 N.ar    1  UNL1       -0.2918
      8 C         140.2594  139.6851  160.7647 C.3     1  UNL1        0.1337
      9 C         143.1038  138.8087  165.4871 C.3     1  UNL1        0.0716
     10 C         142.1201  137.9453  164.7543 C.3     1  UNL1        0.0200
     11 C         142.0309  138.0136  163.2585 C.3     1  UNL1        0.0092
     12 C         142.9253  138.9453  162.4956 C.3     1  UNL1        0.0589
     13 C         143.9089  139.8087  163.2285 C.3     1  UNL1        0.0092
     14 C         143.9982  139.7403  164.7243 C.3     1  UNL1        0.0200
     15 C         142.4210  139.5638  169.3230 C.3     1  UNL1        0.0946
     16 C         142.3318  139.6322  167.8272 C.2     1  UNL1        0.2229
     17 O         141.3813  140.5925  167.1757 O.2     1  UNL1       -0.2751
     18 N         143.1930  138.7403  166.9829 N.am    1  UNL1       -0.3060
     19 H         143.8168  138.1100  167.4105 H       1  UNL1        0.1494
     20 C         140.6505  142.1405  157.7473 C.3     1  UNL1        0.0294
     21 C         142.1104  142.3955  157.5161 C.3     1  UNL1        0.0730
     22 N         143.0386  142.5516  158.6840 N.3     1  UNL1       -0.2726
     23 C         144.5256  142.3555  158.6608 C.3     1  UNL1        0.0721
     24 C         145.0487  142.6141  160.0427 C.3     1  UNL1        0.0190
     25 C         143.8852  142.9699  160.9198 C.3     1  UNL1        0.0201
     26 C         144.6866  143.1625  162.1730 C.3     1  UNL1        0.0061
     27 C         143.1997  143.3586  162.1962 C.3     1  UNL1        0.0237
     28 C         142.6428  142.9313  160.0801 C.3     1  UNL1        0.0724
     29 C         141.9455  143.6961  162.9465 C.ar    1  UNL1       -0.0225
     30 C         141.0758  144.8271  162.4832 C.ar    1  UNL1       -0.0043
     31 C         139.8215  145.1647  163.2335 C.ar    1  UNL1        0.0035
     32 C         139.4370  144.3713  164.4470 C.ar    1  UNL1        0.0714
     33 C         140.3067  143.2403  164.9103 C.ar    1  UNL1        0.0035
     34 C         141.5609  142.9027  164.1600 C.ar    1  UNL1       -0.0043
     35 C         138.1828  144.7089  165.1973 C.3     1  UNL1        0.4186
     36 F         136.9285  145.0465  165.9476 F       1  UNL1       -0.1659
     37 F         137.3648  144.3446  163.9938 F       1  UNL1       -0.1659
     38 F         139.0007  145.0732  166.4007 F       1  UNL1       -0.1659
@<TRIPOS>BOND
     1    15    16    1
     2    16    17    2
     3    16    18   am
     4    18     9    1
     5     9    10    1
     6    10    11    1
     7    11    12    1
     8    12     3    1
     9     3     4   ar
    10     4     5   ar
    11     5     6   ar
    12     6     2    1
    13     2     1    1
    14     1    20    1
    15    20    21    1
    16    21    22    1
    17    22    23    1
    18    23    24    1
    19    25    24    1
    20    25    26    1
    21    26    27    1
    22    27    29    1
    23    29    30   ar
    24    30    31   ar
    25    31    32   ar
    26    32    35    1
    27    35    36    1
    28    35    37    1
    29    35    38    1
    30    32    33   ar
    31    33    34   ar
    32    25    28    1
    33     6     7   ar
    34     7     8    1
    35    12    13    1
    36    13    14    1
    37    14     9    1
    38     7     3   ar
    39    28    22    1
    40    27    25    1
    41    34    29   ar
    42    18    19    1
