@<TRIPOS>MOLECULE
*****
 26 28 0 0 0
SMALL
GASTEIGER

@<TRIPOS>ATOM
      1 O         141.3249  140.7113  162.3866 O.2     1  UNL1       -0.2520
      2 C         140.3552  139.5950  162.6383 C.2     1  UNL1        0.3111
      3 N         139.2586  139.1544  161.7146 N.am    1  UNL1       -0.2606
      4 C         138.5374  138.0103  162.3634 C.3     1  UNL1        0.1169
      5 C         139.1883  137.7437  163.6883 C.3     1  UNL1        0.1213
      6 N         140.3118  138.7231  163.8583 N.am    1  UNL1       -0.2391
      7 C         141.2305  138.8145  165.0405 C.ar    1  UNL1        0.0836
      8 C         142.5692  138.1389  165.0040 C.ar    1  UNL1        0.0173
      9 C         143.4879  138.2303  166.1862 C.ar    1  UNL1        0.0023
     10 C         143.0678  138.9974  167.4049 C.ar    1  UNL1        0.0138
     11 C         141.7291  139.6731  167.4413 C.ar    1  UNL1        0.0863
     12 CL        141.3091  140.4401  168.6600 Cl      1  UNL1       -0.0799
     13 C         140.8104  139.5816  166.2591 C.ar    1  UNL1        0.1642
     14 F         139.4717  140.2573  166.2956 F       1  UNL1       -0.2020
     15 C         138.9392  139.7529  160.3767 C.3     1  UNL1        0.1123
     16 C         138.3202  141.1167  160.2937 C.3     1  UNL1        0.0939
     17 N         138.3343  142.0209  161.4905 N.3     1  UNL1       -0.2712
     18 C         139.1994  143.2463  161.4944 C.3     1  UNL1        0.0724
     19 C         139.2135  144.1504  162.6912 C.3     1  UNL1        0.0258
     20 C         138.3625  143.8292  163.8840 C.3     1  UNL1        0.0979
     21 C         137.4974  142.6038  163.8800 C.3     1  UNL1        0.0258
     22 C         137.4833  141.6997  162.6832 C.3     1  UNL1        0.0724
     23 C         138.3766  144.7334  165.0807 C.3     1  UNL1        0.3976
     24 F         138.3908  145.6376  166.2775 F       1  UNL1       -0.1701
     25 F         136.9271  144.4342  165.3240 F       1  UNL1       -0.1701
     26 F         139.8262  145.0327  164.8375 F       1  UNL1       -0.1701
@<TRIPOS>BOND
     1     1     2    2
     2     2     3   am
     3     3    15    1
     4    15    16    1
     5    16    17    1
     6    17    18    1
     7    18    19    1
     8    19    20    1
     9    20    23    1
    10    23    24    1
    11    23    25    1
    12    23    26    1
    13    20    21    1
    14    21    22    1
    15     3     4    1
    16     4     5    1
    17     5     6    1
    18     6     7    1
    19     7     8   ar
    20     8     9   ar
    21     9    10   ar
    22    10    11   ar
    23    11    12    1
    24    11    13   ar
    25    13    14    1
    26     6     2   am
    27    13     7   ar
    28    22    17    1
@<TRIPOS>MOLECULE
*****
 26 28 0 0 0
SMALL
GASTEIGER

@<TRIPOS>ATOM
      1 O         139.7989  143.1513  164.9289 O.2     1  UNL1       -0.2520
      2 C         139.1373  142.7998  163.6293 C.2     1  UNL1        0.3111
      3 N         138.7777  143.7604  162.5348 N.am    1  UNL1       -0.2606
      4 C         138.1373  142.9802  161.4252 C.3     1  UNL1        0.1169
      5 C         138.1011  141.5374  161.8339 C.3     1  UNL1        0.1213
      6 N         138.7192  141.4259  163.1962 N.am    1  UNL1       -0.2391
      7 C         138.8892  140.1623  163.9864 C.ar    1  UNL1        0.0836
      8 C         138.0822  139.9421  165.2315 C.ar    1  UNL1        0.0173
      9 C         138.2522  138.6786  166.0218 C.ar    1  UNL1        0.0023
     10 C         139.2293  137.6353  165.5670 C.ar    1  UNL1        0.0138
     11 C         140.0363  137.8555  164.3219 C.ar    1  UNL1        0.0863
     12 CL        141.0133  136.8122  163.8671 Cl      1  UNL1       -0.0799
     13 C         139.8663  139.1190  163.5316 C.ar    1  UNL1        0.1642
     14 F         140.6733  139.3393  162.2865 F       1  UNL1       -0.2020
     15 C         139.0166  145.2412  162.5477 C.3     1  UNL1        0.1123
     16 C         140.3815  145.7834  162.2427 C.3     1  UNL1        0.0939
     17 N         141.5978  144.9476  162.5114 N.3     1  UNL1       -0.2712
     18 C         142.3485  145.1083  163.8000 C.3     1  UNL1        0.0724
     19 C         143.5647  144.2725  164.0686 C.3     1  UNL1        0.0258
     20 C         144.0303  143.2760  163.0486 C.3     1  UNL1        0.0979
     21 C         143.2795  143.1154  161.7600 C.3     1  UNL1        0.0258
     22 C         142.0633  143.9512  161.4914 C.3     1  UNL1        0.0724
     23 C         145.2466  142.4402  163.3172 C.3     1  UNL1        0.3976
     24 F         146.4628  141.6045  163.5859 F       1  UNL1       -0.1701
     25 F         145.2919  142.0415  161.8720 F       1  UNL1       -0.1701
     26 F         145.2012  142.8389  164.7625 F       1  UNL1       -0.1701
@<TRIPOS>BOND
     1     1     2    2
     2     2     3   am
     3     3    15    1
     4    15    16    1
     5    16    17    1
     6    17    18    1
     7    18    19    1
     8    19    20    1
     9    20    23    1
    10    23    24    1
    11    23    25    1
    12    23    26    1
    13    20    21    1
    14    21    22    1
    15     3     4    1
    16     4     5    1
    17     5     6    1
    18     6     7    1
    19     7     8   ar
    20     8     9   ar
    21     9    10   ar
    22    10    11   ar
    23    11    12    1
    24    11    13   ar
    25    13    14    1
    26     6     2   am
    27    13     7   ar
    28    22    17    1
@<TRIPOS>MOLECULE
*****
 26 28 0 0 0
SMALL
GASTEIGER

@<TRIPOS>ATOM
      1 O         143.4875  142.5331  166.2678 O.2     1  UNL1       -0.2520
      2 C         143.5372  141.1283  165.7442 C.2     1  UNL1        0.3111
      3 N         144.4794  140.6098  164.6986 N.am    1  UNL1       -0.2606
      4 C         144.1778  139.1564  164.4825 C.3     1  UNL1        0.1169
      5 C         143.0492  138.7766  165.3946 C.3     1  UNL1        0.1213
      6 N         142.6532  139.9953  166.1744 N.am    1  UNL1       -0.2391
      7 C         141.5644  140.0682  167.2036 C.ar    1  UNL1        0.0836
      8 C         140.1405  139.8098  166.8087 C.ar    1  UNL1        0.0173
      9 C         139.0518  139.8827  167.8379 C.ar    1  UNL1        0.0023
     10 C         139.3869  140.2139  169.2619 C.ar    1  UNL1        0.0138
     11 C         140.8107  140.4724  169.6568 C.ar    1  UNL1        0.0863
     12 CL        141.1458  140.8036  171.0809 Cl      1  UNL1       -0.0799
     13 C         141.8995  140.3995  168.6276 C.ar    1  UNL1        0.1642
     14 F         143.3233  140.6579  169.0225 F       1  UNL1       -0.2020
     15 C         145.5376  141.4051  163.9930 C.3     1  UNL1        0.1123
     16 C         145.2238  142.0832  162.6924 C.3     1  UNL1        0.0939
     17 N         144.0028  142.9464  162.5719 N.3     1  UNL1       -0.2712
     18 C         143.9420  144.2634  163.2871 C.3     1  UNL1        0.0724
     19 C         142.7211  145.1265  163.1667 C.3     1  UNL1        0.0258
     20 C         141.5611  144.6725  162.3310 C.3     1  UNL1        0.0979
     21 C         141.6220  143.3554  161.6159 C.3     1  UNL1        0.0258
     22 C         142.8429  142.4924  161.7363 C.3     1  UNL1        0.0724
     23 C         140.3402  145.5357  162.2106 C.3     1  UNL1        0.3976
     24 F         139.1194  146.3987  162.0902 F       1  UNL1       -0.1701
     25 F         140.7237  145.8818  160.8024 F       1  UNL1       -0.1701
     26 F         139.9567  145.1896  163.6188 F       1  UNL1       -0.1701
@<TRIPOS>BOND
     1     1     2    2
     2     2     3   am
     3     3    15    1
     4    15    16    1
     5    16    17    1
     6    17    18    1
     7    18    19    1
     8    19    20    1
     9    20    23    1
    10    23    24    1
    11    23    25    1
    12    23    26    1
    13    20    21    1
    14    21    22    1
    15     3     4    1
    16     4     5    1
    17     5     6    1
    18     6     7    1
    19     7     8   ar
    20     8     9   ar
    21     9    10   ar
    22    10    11   ar
    23    11    12    1
    24    11    13   ar
    25    13    14    1
    26     6     2   am
    27    13     7   ar
    28    22    17    1
@<TRIPOS>MOLECULE
*****
 26 28 0 0 0
SMALL
GASTEIGER

@<TRIPOS>ATOM
      1 O         139.8960  142.9656  164.3913 O.2     1  UNL1       -0.2520
      2 C         139.2684  142.6407  163.0682 C.2     1  UNL1        0.3111
      3 N         138.9929  143.6137  161.9603 N.am    1  UNL1       -0.2606
      4 C         138.3604  142.8601  160.8281 C.3     1  UNL1        0.1169
      5 C         138.2448  141.4213  161.2361 C.3     1  UNL1        0.1213
      6 N         138.8060  141.2857  162.6206 N.am    1  UNL1       -0.2391
      7 C         138.8901  140.0177  163.4176 C.ar    1  UNL1        0.0836
      8 C         139.5593  138.8084  162.8347 C.ar    1  UNL1        0.0173
      9 C         139.6434  137.5405  163.6316 C.ar    1  UNL1        0.0023
     10 C         139.0583  137.4818  165.0115 C.ar    1  UNL1        0.0138
     11 C         138.3890  138.6911  165.5945 C.ar    1  UNL1        0.0863
     12 CL        137.8039  138.6324  166.9744 Cl      1  UNL1       -0.0799
     13 C         138.3050  139.9591  164.7975 C.ar    1  UNL1        0.1642
     14 F         137.6358  141.1683  165.3805 F       1  UNL1       -0.2020
     15 C         139.2967  145.0825  161.9811 C.3     1  UNL1        0.1123
     16 C         140.6948  145.5629  161.7271 C.3     1  UNL1        0.0939
     17 N         141.8645  144.7387  162.1773 N.3     1  UNL1       -0.2712
     18 C         142.4145  143.6664  161.2841 C.3     1  UNL1        0.0724
     19 C         143.5841  142.8423  161.7343 C.3     1  UNL1        0.0258
     20 C         144.2037  143.0904  163.0777 C.3     1  UNL1        0.0979
     21 C         143.6536  144.1626  163.9708 C.3     1  UNL1        0.0258
     22 C         142.4840  144.9867  163.5206 C.3     1  UNL1        0.0724
     23 C         145.3734  142.2661  163.5279 C.3     1  UNL1        0.3976
     24 F         146.5430  141.4419  163.9780 F       1  UNL1       -0.1701
     25 F         145.2894  142.8904  164.8892 F       1  UNL1       -0.1701
     26 F         145.4573  141.6418  162.1666 F       1  UNL1       -0.1701
@<TRIPOS>BOND
     1     1     2    2
     2     2     3   am
     3     3    15    1
     4    15    16    1
     5    16    17    1
     6    17    18    1
     7    18    19    1
     8    19    20    1
     9    20    23    1
    10    23    24    1
    11    23    25    1
    12    23    26    1
    13    20    21    1
    14    21    22    1
    15     3     4    1
    16     4     5    1
    17     5     6    1
    18     6     7    1
    19     7     8   ar
    20     8     9   ar
    21     9    10   ar
    22    10    11   ar
    23    11    12    1
    24    11    13   ar
    25    13    14    1
    26     6     2   am
    27    13     7   ar
    28    22    17    1
@<TRIPOS>MOLECULE
*****
 26 28 0 0 0
SMALL
GASTEIGER

@<TRIPOS>ATOM
      1 O         141.0375  140.7509  161.1038 O.2     1  UNL1       -0.2520
      2 C         139.8099  141.5501  161.4265 C.2     1  UNL1        0.3111
      3 N         139.3910  142.8292  160.7643 N.am    1  UNL1       -0.2606
      4 C         138.1078  143.2802  161.3967 C.3     1  UNL1        0.1169
      5 C         137.7335  142.2798  162.4499 C.3     1  UNL1        0.1213
      6 N         138.7854  141.2106  162.4684 N.am    1  UNL1       -0.2391
      7 C         138.8088  140.0123  163.3703 C.ar    1  UNL1        0.0836
      8 C         139.0097  138.6426  162.7926 C.ar    1  UNL1        0.0173
      9 C         139.0330  137.4443  163.6945 C.ar    1  UNL1        0.0023
     10 C         138.8555  137.6156  165.1741 C.ar    1  UNL1        0.0138
     11 C         138.6546  138.9853  165.7517 C.ar    1  UNL1        0.0863
     12 CL        138.4771  139.1566  167.2313 Cl      1  UNL1       -0.0799
     13 C         138.6313  140.1836  164.8498 C.ar    1  UNL1        0.1642
     14 F         138.4304  141.5533  165.4275 F       1  UNL1       -0.2020
     15 C         140.1264  143.5336  159.6628 C.3     1  UNL1        0.1123
     16 C         141.1517  144.5773  159.9934 C.3     1  UNL1        0.0939
     17 N         141.9643  144.4593  161.2488 N.3     1  UNL1       -0.2712
     18 C         141.5124  145.1482  162.5022 C.3     1  UNL1        0.0724
     19 C         142.3251  145.0301  163.7575 C.3     1  UNL1        0.0258
     20 C         143.5896  144.2233  163.7592 C.3     1  UNL1        0.0979
     21 C         144.0415  143.5345  162.5057 C.3     1  UNL1        0.0258
     22 C         143.2288  143.6525  161.2505 C.3     1  UNL1        0.0724
     23 C         144.4022  144.1053  165.0146 C.3     1  UNL1        0.3976
     24 F         145.2148  143.9873  166.2698 F       1  UNL1       -0.1701
     25 F         144.3598  142.6102  164.9015 F       1  UNL1       -0.1701
     26 F         144.4446  145.6004  165.1276 F       1  UNL1       -0.1701
@<TRIPOS>BOND
     1     1     2    2
     2     2     3   am
     3     3    15    1
     4    15    16    1
     5    16    17    1
     6    17    18    1
     7    18    19    1
     8    19    20    1
     9    20    23    1
    10    23    24    1
    11    23    25    1
    12    23    26    1
    13    20    21    1
    14    21    22    1
    15     3     4    1
    16     4     5    1
    17     5     6    1
    18     6     7    1
    19     7     8   ar
    20     8     9   ar
    21     9    10   ar
    22    10    11   ar
    23    11    12    1
    24    11    13   ar
    25    13    14    1
    26     6     2   am
    27    13     7   ar
    28    22    17    1
@<TRIPOS>MOLECULE
*****
 26 28 0 0 0
SMALL
GASTEIGER

@<TRIPOS>ATOM
      1 O         141.1952  140.6798  160.8362 O.2     1  UNL1       -0.2520
      2 C         142.4628  141.2113  161.4368 C.2     1  UNL1        0.3111
      3 N         143.7656  140.4751  161.5409 N.am    1  UNL1       -0.2606
      4 C         144.7581  141.3811  162.2072 C.3     1  UNL1        0.1169
      5 C         144.0688  142.6773  162.5149 C.3     1  UNL1        0.1213
      6 N         142.6502  142.5724  162.0388 N.am    1  UNL1       -0.2391
      7 C         141.6029  143.6409  162.1460 C.ar    1  UNL1        0.0836
      8 C         141.3775  144.5873  161.0043 C.ar    1  UNL1        0.0173
      9 C         140.3303  145.6558  161.1114 C.ar    1  UNL1        0.0023
     10 C         139.5084  145.7779  162.3602 C.ar    1  UNL1        0.0138
     11 C         139.7338  144.8315  163.5019 C.ar    1  UNL1        0.0863
     12 CL        138.9119  144.9535  164.7508 Cl      1  UNL1       -0.0799
     13 C         140.7810  143.7630  163.3948 C.ar    1  UNL1        0.1642
     14 F         141.0064  142.8165  164.5365 F       1  UNL1       -0.2020
     15 C         144.0294  139.0781  161.0625 C.3     1  UNL1        0.1123
     16 C         143.6012  137.9066  161.8957 C.3     1  UNL1        0.0939
     17 N         142.4159  138.0277  162.8071 N.3     1  UNL1       -0.2712
     18 C         142.5926  138.5503  164.2019 C.3     1  UNL1        0.0724
     19 C         141.4073  138.6714  165.1131 C.3     1  UNL1        0.0258
     20 C         140.0453  138.2698  164.6295 C.3     1  UNL1        0.0979
     21 C         139.8687  137.7471  163.2347 C.3     1  UNL1        0.0258
     22 C         141.0540  137.6261  162.3235 C.3     1  UNL1        0.0724
     23 C         138.8600  138.3909  165.5408 C.3     1  UNL1        0.3976
     24 F         137.6747  138.5119  166.4521 F       1  UNL1       -0.1701
     25 F         139.0433  139.8790  165.5817 F       1  UNL1       -0.1701
     26 F         138.6767  136.9027  165.5000 F       1  UNL1       -0.1701
@<TRIPOS>BOND
     1     1     2    2
     2     2     3   am
     3     3    15    1
     4    15    16    1
     5    16    17    1
     6    17    18    1
     7    18    19    1
     8    19    20    1
     9    20    23    1
    10    23    24    1
    11    23    25    1
    12    23    26    1
    13    20    21    1
    14    21    22    1
    15     3     4    1
    16     4     5    1
    17     5     6    1
    18     6     7    1
    19     7     8   ar
    20     8     9   ar
    21     9    10   ar
    22    10    11   ar
    23    11    12    1
    24    11    13   ar
    25    13    14    1
    26     6     2   am
    27    13     7   ar
    28    22    17    1
@<TRIPOS>MOLECULE
*****
 26 28 0 0 0
SMALL
GASTEIGER

@<TRIPOS>ATOM
      1 O         138.4327  139.3683  166.1635 O.2     1  UNL1       -0.2520
      2 C         139.7308  139.1846  165.4347 C.2     1  UNL1        0.3111
      3 N         139.9016  138.5610  164.0812 N.am    1  UNL1       -0.2606
      4 C         141.3624  138.5833  163.7414 C.3     1  UNL1        0.1169
      5 C         142.0946  139.2207  164.8849 C.3     1  UNL1        0.1213
      6 N         141.0862  139.5924  165.9314 N.am    1  UNL1       -0.2391
      7 C         141.3815  140.2553  167.2442 C.ar    1  UNL1        0.0836
      8 C         142.3215  139.6073  168.2171 C.ar    1  UNL1        0.0173
      9 C         142.6167  140.2703  169.5298 C.ar    1  UNL1        0.0023
     10 C         141.9719  141.5813  169.8697 C.ar    1  UNL1        0.0138
     11 C         141.0319  142.2293  168.8968 C.ar    1  UNL1        0.0863
     12 CL        140.3871  143.5403  169.2366 Cl      1  UNL1       -0.0799
     13 C         140.7367  141.5663  167.5840 C.ar    1  UNL1        0.1642
     14 F         139.7966  142.2144  166.6112 F       1  UNL1       -0.2020
     15 C         138.8040  138.0115  163.2188 C.3     1  UNL1        0.1123
     16 C         138.0200  138.9286  162.3277 C.3     1  UNL1        0.0939
     17 N         138.3088  140.4006  162.3261 N.3     1  UNL1       -0.2712
     18 C         139.4692  140.9364  161.5410 C.3     1  UNL1        0.0724
     19 C         139.7579  142.4083  161.5394 C.3     1  UNL1        0.0258
     20 C         138.8862  143.3445  162.3229 C.3     1  UNL1        0.0979
     21 C         137.7258  142.8087  163.1079 C.3     1  UNL1        0.0258
     22 C         137.4371  141.3368  163.1095 C.3     1  UNL1        0.0724
     23 C         139.1750  144.8165  162.3212 C.3     1  UNL1        0.3976
     24 F         139.4637  146.2884  162.3196 F       1  UNL1       -0.1701
     25 F         138.6840  144.9144  163.7352 F       1  UNL1       -0.1701
     26 F         139.6660  144.7185  160.9073 F       1  UNL1       -0.1701
@<TRIPOS>BOND
     1     1     2    2
     2     2     3   am
     3     3    15    1
     4    15    16    1
     5    16    17    1
     6    17    18    1
     7    18    19    1
     8    19    20    1
     9    20    23    1
    10    23    24    1
    11    23    25    1
    12    23    26    1
    13    20    21    1
    14    21    22    1
    15     3     4    1
    16     4     5    1
    17     5     6    1
    18     6     7    1
    19     7     8   ar
    20     8     9   ar
    21     9    10   ar
    22    10    11   ar
    23    11    12    1
    24    11    13   ar
    25    13    14    1
    26     6     2   am
    27    13     7   ar
    28    22    17    1
@<TRIPOS>MOLECULE
*****
 26 28 0 0 0
SMALL
GASTEIGER

@<TRIPOS>ATOM
      1 O         142.6660  138.0807  164.4634 O.2     1  UNL1       -0.2520
      2 C         141.6363  138.5020  163.4573 C.2     1  UNL1        0.3111
      3 N         141.8090  138.5049  161.9673 N.am    1  UNL1       -0.2606
      4 C         140.5325  138.9991  161.3536 C.3     1  UNL1        0.1169
      5 C         139.5709  139.3016  162.4644 C.3     1  UNL1        0.1213
      6 N         140.2531  138.9944  163.7646 N.am    1  UNL1       -0.2391
      7 C         139.6567  139.1518  165.1319 C.ar    1  UNL1        0.0836
      8 C         138.4490  138.3513  165.5201 C.ar    1  UNL1        0.0173
      9 C         137.8527  138.5088  166.8874 C.ar    1  UNL1        0.0023
     10 C         138.4640  139.4668  167.8665 C.ar    1  UNL1        0.0138
     11 C         139.6717  140.2673  167.4782 C.ar    1  UNL1        0.0863
     12 CL        140.2831  141.2252  168.4573 Cl      1  UNL1       -0.0799
     13 C         140.2681  140.1098  166.1109 C.ar    1  UNL1        0.1642
     14 F         141.4757  140.9103  165.7227 F       1  UNL1       -0.2020
     15 C         143.0417  138.0871  161.2218 C.3     1  UNL1        0.1123
     16 C         144.2112  139.0211  161.1230 C.3     1  UNL1        0.0939
     17 N         144.1867  140.3331  161.8498 N.3     1  UNL1       -0.2712
     18 C         144.8571  140.4633  163.1853 C.3     1  UNL1        0.0724
     19 C         144.8326  141.7753  163.9120 C.3     1  UNL1        0.0258
     20 C         144.1377  142.9570  163.3032 C.3     1  UNL1        0.0979
     21 C         143.4673  142.8267  161.9677 C.3     1  UNL1        0.0258
     22 C         143.4918  141.5148  161.2410 C.3     1  UNL1        0.0724
     23 C         144.1131  144.2690  164.0300 C.3     1  UNL1        0.3976
     24 F         144.0886  145.5810  164.7566 F       1  UNL1       -0.1701
     25 F         144.0884  143.5420  165.3417 F       1  UNL1       -0.1701
     26 F         144.1379  144.9960  162.7182 F       1  UNL1       -0.1701
@<TRIPOS>BOND
     1     1     2    2
     2     2     3   am
     3     3    15    1
     4    15    16    1
     5    16    17    1
     6    17    18    1
     7    18    19    1
     8    19    20    1
     9    20    23    1
    10    23    24    1
    11    23    25    1
    12    23    26    1
    13    20    21    1
    14    21    22    1
    15     3     4    1
    16     4     5    1
    17     5     6    1
    18     6     7    1
    19     7     8   ar
    20     8     9   ar
    21     9    10   ar
    22    10    11   ar
    23    11    12    1
    24    11    13   ar
    25    13    14    1
    26     6     2   am
    27    13     7   ar
    28    22    17    1
@<TRIPOS>MOLECULE
*****
 26 28 0 0 0
SMALL
GASTEIGER

@<TRIPOS>ATOM
      1 O         144.1071  143.0186  166.2340 O.2     1  UNL1       -0.2520
      2 C         143.8054  141.7492  165.4940 C.2     1  UNL1        0.3111
      3 N         144.2256  141.4253  164.0909 N.am    1  UNL1       -0.2606
      4 C         143.7104  140.0567  163.7569 C.3     1  UNL1        0.1169
      5 C         142.9718  139.5347  164.9536 C.3     1  UNL1        0.1213
      6 N         143.0304  140.5807  166.0272 N.am    1  UNL1       -0.2391
      7 C         142.4212  140.4765  167.3939 C.ar    1  UNL1        0.0836
      8 C         142.7745  139.3241  168.2867 C.ar    1  UNL1        0.0173
      9 C         142.1653  139.2199  169.6534 C.ar    1  UNL1        0.0023
     10 C         141.2026  140.2681  170.1273 C.ar    1  UNL1        0.0138
     11 C         140.8493  141.4206  169.2344 C.ar    1  UNL1        0.0863
     12 CL        139.8867  142.4688  169.7083 Cl      1  UNL1       -0.0799
     13 C         141.4585  141.5247  167.8677 C.ar    1  UNL1        0.1642
     14 F         141.1052  142.6772  166.9749 F       1  UNL1       -0.2020
     15 C         145.0214  142.3141  163.1815 C.3     1  UNL1        0.1123
     16 C         144.3389  143.4108  162.4190 C.3     1  UNL1        0.0939
     17 N         142.8706  143.6535  162.6070 N.3     1  UNL1       -0.2712
     18 C         141.8726  142.8763  161.8008 C.3     1  UNL1        0.0724
     19 C         140.4044  143.1191  161.9888 C.3     1  UNL1        0.0258
     20 C         139.9342  144.1391  162.9829 C.3     1  UNL1        0.0979
     21 C         140.9321  144.9164  163.7891 C.3     1  UNL1        0.0258
     22 C         142.4003  144.6736  163.6011 C.3     1  UNL1        0.0724
     23 C         138.4659  144.3819  163.1709 C.3     1  UNL1        0.3976
     24 F         136.9977  144.6247  163.3589 F       1  UNL1       -0.1701
     25 F         138.1785  143.6191  161.9118 F       1  UNL1       -0.1701
     26 F         138.7532  145.1448  164.4300 F       1  UNL1       -0.1701
@<TRIPOS>BOND
     1     1     2    2
     2     2     3   am
     3     3    15    1
     4    15    16    1
     5    16    17    1
     6    17    18    1
     7    18    19    1
     8    19    20    1
     9    20    23    1
    10    23    24    1
    11    23    25    1
    12    23    26    1
    13    20    21    1
    14    21    22    1
    15     3     4    1
    16     4     5    1
    17     5     6    1
    18     6     7    1
    19     7     8   ar
    20     8     9   ar
    21     9    10   ar
    22    10    11   ar
    23    11    12    1
    24    11    13   ar
    25    13    14    1
    26     6     2   am
    27    13     7   ar
    28    22    17    1
