@<TRIPOS>MOLECULE
*****
 31 32 0 0 0
SMALL
GASTEIGER

@<TRIPOS>ATOM
      1 N         137.9701  140.5783  163.2535 N.3     1  UNL1       -0.2712
      2 C         138.2261  139.4496  162.2993 C.3     1  UNL1        0.0721
      3 C         138.6516  138.1089  162.8204 C.3     1  UNL1        0.0174
      4 C         138.8210  137.8969  164.2956 C.3     1  UNL1        0.0045
      5 C         138.5650  139.0256  165.2497 C.3     1  UNL1        0.0356
      6 C         138.1396  140.3663  164.7287 C.3     1  UNL1        0.0738
      7 C         137.5446  141.9190  162.7324 C.3     1  UNL1        0.0937
      8 C         138.5154  143.0623  162.7225 C.3     1  UNL1        0.1082
      9 N         142.4343  142.8973  163.3269 N.am    1  UNL1       -0.2921
     10 C         140.9745  143.1549  163.5560 C.2     1  UNL1        0.3007
     11 O         140.5138  143.7627  164.8476 O.2     1  UNL1       -0.2528
     12 N         139.9753  142.8047  162.4934 N.am    1  UNL1       -0.2875
     13 H         142.7367  142.4984  162.4792 H       1  UNL1        0.1508
     14 H         140.2777  142.4058  161.6457 H       1  UNL1        0.1510
     15 C         143.6332  144.5933  163.7581 C.3     1  UNL1        0.0197
     16 C         143.4335  143.2475  164.3895 C.3     1  UNL1        0.0583
     17 C         143.2337  141.9016  165.0209 C.3     1  UNL1        0.0197
     18 C         144.4327  143.5976  165.4521 C.3     1  UNL1        0.0197
     19 C         138.7345  138.8136  166.7250 C.3     1  UNL1        0.0910
     20 N         139.2641  139.9219  167.5860 N.am    1  UNL1       -0.3008
     21 C         140.7352  140.2138  167.6121 C.2     1  UNL1        0.2459
     22 O         141.6767  139.3975  166.7771 O.2     1  UNL1       -0.2701
     23 H         138.6461  140.4577  168.1340 H       1  UNL1        0.1497
     24 C         141.2647  141.3221  168.4730 C.ar    1  UNL1        0.0550
     25 C         140.3453  142.4083  168.9470 C.ar    1  UNL1        0.0160
     26 C         140.8748  143.5166  169.8080 C.ar    1  UNL1        0.0587
     27 CL        139.9553  144.6028  170.2820 Cl      1  UNL1       -0.0822
     28 C         142.3239  143.5386  170.1950 C.ar    1  UNL1        0.0228
     29 C         143.2434  142.4524  169.7210 C.ar    1  UNL1        0.0587
     30 CL        144.6924  142.4744  170.1080 Cl      1  UNL1       -0.0822
     31 C         142.7138  141.3441  168.8600 C.ar    1  UNL1        0.0160
@<TRIPOS>BOND
     1    15    16    1
     2    16    17    1
     3    16    18    1
     4    16     9    1
     5     9    10   am
     6    10    11    2
     7    10    12   am
     8    12     8    1
     9     8     7    1
    10     7     1    1
    11     1     2    1
    12     2     3    1
    13     3     4    1
    14     4     5    1
    15     5    19    1
    16    19    20    1
    17    20    21   am
    18    21    22    2
    19    21    24    1
    20    24    25   ar
    21    25    26   ar
    22    26    27    1
    23    26    28   ar
    24    28    29   ar
    25    29    30    1
    26    29    31   ar
    27     5     6    1
    28     6     1    1
    29    31    24   ar
    30     9    13    1
    31    12    14    1
    32    20    23    1
@<TRIPOS>MOLECULE
*****
 31 32 0 0 0
SMALL
GASTEIGER

@<TRIPOS>ATOM
      1 N         140.2618  138.2122  161.5935 N.3     1  UNL1       -0.2712
      2 C         141.2592  138.4482  160.4983 C.3     1  UNL1        0.0721
      3 C         142.7127  138.6125  160.8301 C.3     1  UNL1        0.0174
      4 C         143.1690  138.5408  162.2573 C.3     1  UNL1        0.0045
      5 C         142.1716  138.3049  163.3525 C.3     1  UNL1        0.0356
      6 C         140.7181  138.1406  163.0206 C.3     1  UNL1        0.0738
      7 C         138.8083  138.0479  161.2617 C.3     1  UNL1        0.0937
      8 C         137.9211  139.2532  161.1609 C.3     1  UNL1        0.1082
      9 N         137.7921  141.7252  164.2629 N.am    1  UNL1       -0.2921
     10 C         138.2673  141.0374  163.0175 C.2     1  UNL1        0.3007
     11 O         139.5638  141.4458  162.3832 O.2     1  UNL1       -0.2528
     12 N         137.4459  139.9410  162.4063 N.am    1  UNL1       -0.2875
     13 H         136.9412  141.4571  164.6792 H       1  UNL1        0.1508
     14 H         136.5950  139.6729  162.8226 H       1  UNL1        0.1510
     15 C         139.4052  141.8022  165.6383 C.3     1  UNL1        0.0197
     16 C         138.6134  142.8215  164.8741 C.3     1  UNL1        0.0583
     17 C         137.8216  143.8407  164.1099 C.3     1  UNL1        0.0197
     18 C         139.4347  143.9178  165.4853 C.3     1  UNL1        0.0197
     19 C         142.6279  138.2333  164.7797 C.3     1  UNL1        0.0910
     20 N         142.0066  139.1274  165.8114 N.am    1  UNL1       -0.3008
     21 C         142.5652  139.1679  167.2030 C.2     1  UNL1        0.2459
     22 O         143.7449  138.3142  167.5628 O.2     1  UNL1       -0.2701
     23 H         141.2323  139.6876  165.5753 H       1  UNL1        0.1497
     24 C         141.9439  140.0620  168.2348 C.ar    1  UNL1        0.0550
     25 C         142.7421  141.1804  168.8366 C.ar    1  UNL1        0.0160
     26 C         142.1208  142.0745  169.8683 C.ar    1  UNL1        0.0587
     27 CL        142.9190  143.1929  170.4701 Cl      1  UNL1       -0.0822
     28 C         140.7014  141.8503  170.2984 C.ar    1  UNL1        0.0228
     29 C         139.9032  140.7319  169.6966 C.ar    1  UNL1        0.0587
     30 CL        138.4838  140.5076  170.1266 Cl      1  UNL1       -0.0822
     31 C         140.5245  139.8377  168.6648 C.ar    1  UNL1        0.0160
@<TRIPOS>BOND
     1    15    16    1
     2    16    17    1
     3    16    18    1
     4    16     9    1
     5     9    10   am
     6    10    11    2
     7    10    12   am
     8    12     8    1
     9     8     7    1
    10     7     1    1
    11     1     2    1
    12     2     3    1
    13     3     4    1
    14     4     5    1
    15     5    19    1
    16    19    20    1
    17    20    21   am
    18    21    22    2
    19    21    24    1
    20    24    25   ar
    21    25    26   ar
    22    26    27    1
    23    26    28   ar
    24    28    29   ar
    25    29    30    1
    26    29    31   ar
    27     5     6    1
    28     6     1    1
    29    31    24   ar
    30     9    13    1
    31    12    14    1
    32    20    23    1
@<TRIPOS>MOLECULE
*****
 31 32 0 0 0
SMALL
GASTEIGER

@<TRIPOS>ATOM
      1 N         144.1174  140.7503  162.3965 N.3     1  UNL1       -0.2712
      2 C         144.3345  141.6815  161.2408 C.3     1  UNL1        0.0721
      3 C         144.4513  143.1579  161.4788 C.3     1  UNL1        0.0174
      4 C         144.3510  143.7031  162.8726 C.3     1  UNL1        0.0045
      5 C         144.1338  142.7719  164.0283 C.3     1  UNL1        0.0356
      6 C         144.0171  141.2955  163.7902 C.3     1  UNL1        0.0738
      7 C         144.0006  139.2739  162.1584 C.3     1  UNL1        0.0937
      8 C         143.1717  138.4289  163.0797 C.3     1  UNL1        0.1082
      9 N         139.3982  138.7004  164.2785 N.am    1  UNL1       -0.2921
     10 C         140.8948  138.6069  164.3183 C.2     1  UNL1        0.3007
     11 O         141.6110  138.5980  165.6362 O.2     1  UNL1       -0.2528
     12 N         141.6751  138.5224  163.0400 N.am    1  UNL1       -0.2875
     13 H         138.9282  138.7062  163.4135 H       1  UNL1        0.1508
     14 H         141.2051  138.5282  162.1750 H       1  UNL1        0.1510
     15 C         138.5722  137.2873  165.6279 C.3     1  UNL1        0.0197
     16 C         138.6179  138.7849  165.5567 C.3     1  UNL1        0.0583
     17 C         138.6635  140.2825  165.4856 C.3     1  UNL1        0.0197
     18 C         137.8374  138.8695  166.8350 C.3     1  UNL1        0.0197
     19 C         144.0335  143.3171  165.4222 C.3     1  UNL1        0.0910
     20 N         143.5808  142.4299  166.5437 N.am    1  UNL1       -0.3008
     21 C         142.1160  142.2413  166.8064 C.2     1  UNL1        0.2459
     22 O         141.1040  142.9400  165.9475 O.2     1  UNL1       -0.2701
     23 H         144.2450  141.9713  167.1074 H       1  UNL1        0.1497
     24 C         141.6633  141.3541  167.9279 C.ar    1  UNL1        0.0550
     25 C         142.5712  140.2786  168.4468 C.ar    1  UNL1        0.0160
     26 C         142.1185  139.3914  169.5683 C.ar    1  UNL1        0.0587
     27 CL        143.0263  138.3160  170.0871 Cl      1  UNL1       -0.0822
     28 C         140.7578  139.5797  170.1711 C.ar    1  UNL1        0.0228
     29 C         139.8499  140.6551  169.6523 C.ar    1  UNL1        0.0587
     30 CL        138.4893  140.8434  170.2550 Cl      1  UNL1       -0.0822
     31 C         140.3027  141.5423  168.5307 C.ar    1  UNL1        0.0160
@<TRIPOS>BOND
     1    15    16    1
     2    16    17    1
     3    16    18    1
     4    16     9    1
     5     9    10   am
     6    10    11    2
     7    10    12   am
     8    12     8    1
     9     8     7    1
    10     7     1    1
    11     1     2    1
    12     2     3    1
    13     3     4    1
    14     4     5    1
    15     5    19    1
    16    19    20    1
    17    20    21   am
    18    21    22    2
    19    21    24    1
    20    24    25   ar
    21    25    26   ar
    22    26    27    1
    23    26    28   ar
    24    28    29   ar
    25    29    30    1
    26    29    31   ar
    27     5     6    1
    28     6     1    1
    29    31    24   ar
    30     9    13    1
    31    12    14    1
    32    20    23    1
@<TRIPOS>MOLECULE
*****
 31 32 0 0 0
SMALL
GASTEIGER

@<TRIPOS>ATOM
      1 N         137.8819  141.1322  162.8677 N.3     1  UNL1       -0.2712
      2 C         137.5876  140.3367  161.6305 C.3     1  UNL1        0.0721
      3 C         137.9311  138.8775  161.5778 C.3     1  UNL1        0.0174
      4 C         138.5688  138.2139  162.7621 C.3     1  UNL1        0.0045
      5 C         138.8631  139.0094  163.9993 C.3     1  UNL1        0.0356
      6 C         138.5196  140.4686  164.0520 C.3     1  UNL1        0.0738
      7 C         137.5384  142.5914  162.9204 C.3     1  UNL1        0.0937
      8 C         138.5703  143.6184  162.5592 C.3     1  UNL1        0.1082
      9 N         142.4377  143.0757  163.2658 N.am    1  UNL1       -0.2921
     10 C         141.0064  143.4840  163.4523 C.2     1  UNL1        0.3007
     11 O         140.5799  144.1662  164.7182 O.2     1  UNL1       -0.2528
     12 N         140.0016  143.2101  162.3727 N.am    1  UNL1       -0.2875
     13 H         142.7176  142.6280  162.4349 H       1  UNL1        0.1508
     14 H         140.2815  142.7623  161.5418 H       1  UNL1        0.1510
     15 C         143.7173  144.6976  163.7474 C.3     1  UNL1        0.0197
     16 C         143.4425  143.3496  164.3453 C.3     1  UNL1        0.0583
     17 C         143.1676  142.0017  164.9432 C.3     1  UNL1        0.0197
     18 C         144.4473  143.6235  165.4249 C.3     1  UNL1        0.0197
     19 C         139.5009  138.3457  165.1837 C.3     1  UNL1        0.0910
     20 N         140.2737  139.1635  166.1757 N.am    1  UNL1       -0.3008
     21 C         139.6496  139.5379  167.4873 C.2     1  UNL1        0.2459
     22 O         138.2527  139.0946  167.8069 O.2     1  UNL1       -0.2701
     23 H         141.1905  139.4544  165.9659 H       1  UNL1        0.1497
     24 C         140.4223  140.3557  168.4792 C.ar    1  UNL1        0.0550
     25 C         141.5378  139.7283  169.2616 C.ar    1  UNL1        0.0160
     26 C         142.3106  140.5461  170.2536 C.ar    1  UNL1        0.0587
     27 CL        143.4260  139.9187  171.0360 Cl      1  UNL1       -0.0822
     28 C         141.9679  141.9914  170.4632 C.ar    1  UNL1        0.0228
     29 C         140.8525  142.6188  169.6808 C.ar    1  UNL1        0.0587
     30 CL        140.5098  144.0640  169.8903 Cl      1  UNL1       -0.0822
     31 C         140.0797  141.8009  168.6888 C.ar    1  UNL1        0.0160
@<TRIPOS>BOND
     1    15    16    1
     2    16    17    1
     3    16    18    1
     4    16     9    1
     5     9    10   am
     6    10    11    2
     7    10    12   am
     8    12     8    1
     9     8     7    1
    10     7     1    1
    11     1     2    1
    12     2     3    1
    13     3     4    1
    14     4     5    1
    15     5    19    1
    16    19    20    1
    17    20    21   am
    18    21    22    2
    19    21    24    1
    20    24    25   ar
    21    25    26   ar
    22    26    27    1
    23    26    28   ar
    24    28    29   ar
    25    29    30    1
    26    29    31   ar
    27     5     6    1
    28     6     1    1
    29    31    24   ar
    30     9    13    1
    31    12    14    1
    32    20    23    1
@<TRIPOS>MOLECULE
*****
 31 32 0 0 0
SMALL
GASTEIGER

@<TRIPOS>ATOM
      1 N         139.0982  142.7509  160.1256 N.3     1  UNL1       -0.2712
      2 C         138.8734  141.5520  159.2526 C.3     1  UNL1        0.0721
      3 C         138.1487  140.3554  159.7938 C.3     1  UNL1        0.0174
      4 C         137.6489  140.3575  161.2081 C.3     1  UNL1        0.0045
      5 C         137.8738  141.5563  162.0811 C.3     1  UNL1        0.0356
      6 C         138.5984  142.7530  161.5399 C.3     1  UNL1        0.0738
      7 C         139.8228  143.9475  159.5844 C.3     1  UNL1        0.0937
      8 C         140.3229  145.0080  160.5200 C.3     1  UNL1        0.1082
      9 N         143.8628  144.2750  162.1576 N.am    1  UNL1       -0.2921
     10 C         142.3988  144.1803  161.8450 C.2     1  UNL1        0.3007
     11 O         141.5468  143.1633  162.5448 O.2     1  UNL1       -0.2528
     12 N         141.7869  145.1027  160.8326 N.am    1  UNL1       -0.2875
     13 H         144.4221  144.9425  161.6983 H       1  UNL1        0.1508
     14 H         142.3461  145.7702  160.3733 H       1  UNL1        0.1510
     15 C         144.8830  142.4172  162.0709 C.3     1  UNL1        0.0197
     16 C         144.4748  143.3528  163.1700 C.3     1  UNL1        0.0583
     17 C         144.0665  144.2883  164.2690 C.3     1  UNL1        0.0197
     18 C         145.0867  142.4305  164.1824 C.3     1  UNL1        0.0197
     19 C         137.3739  141.5585  163.4954 C.3     1  UNL1        0.0910
     20 N         138.3361  141.7468  164.6306 N.am    1  UNL1       -0.3008
     21 C         138.7705  140.5672  165.4491 C.2     1  UNL1        0.2459
     22 O         138.2426  139.1993  165.1324 O.2     1  UNL1       -0.2701
     23 H         138.6826  142.6446  164.8385 H       1  UNL1        0.1497
     24 C         139.7327  140.7554  166.5843 C.ar    1  UNL1        0.0550
     25 C         141.0193  141.4938  166.3623 C.ar    1  UNL1        0.0160
     26 C         141.9815  141.6821  167.4975 C.ar    1  UNL1        0.0587
     27 CL        143.2682  142.4204  167.2755 Cl      1  UNL1       -0.0822
     28 C         141.6571  141.1319  168.8548 C.ar    1  UNL1        0.0228
     29 C         140.3704  140.3935  169.0768 C.ar    1  UNL1        0.0587
     30 CL        140.0459  139.8434  170.4340 Cl      1  UNL1       -0.0822
     31 C         139.4082  140.2053  167.9415 C.ar    1  UNL1        0.0160
@<TRIPOS>BOND
     1    15    16    1
     2    16    17    1
     3    16    18    1
     4    16     9    1
     5     9    10   am
     6    10    11    2
     7    10    12   am
     8    12     8    1
     9     8     7    1
    10     7     1    1
    11     1     2    1
    12     2     3    1
    13     3     4    1
    14     4     5    1
    15     5    19    1
    16    19    20    1
    17    20    21   am
    18    21    22    2
    19    21    24    1
    20    24    25   ar
    21    25    26   ar
    22    26    27    1
    23    26    28   ar
    24    28    29   ar
    25    29    30    1
    26    29    31   ar
    27     5     6    1
    28     6     1    1
    29    31    24   ar
    30     9    13    1
    31    12    14    1
    32    20    23    1
@<TRIPOS>MOLECULE
*****
 31 32 0 0 0
SMALL
GASTEIGER

@<TRIPOS>ATOM
      1 N         141.0272  138.1312  161.7001 N.3     1  UNL1       -0.2712
      2 C         139.9527  138.4436  160.7013 C.3     1  UNL1        0.0721
      3 C         138.5615  138.7539  161.1687 C.3     1  UNL1        0.0174
      4 C         138.2449  138.7517  162.6349 C.3     1  UNL1        0.0045
      5 C         139.3195  138.4392  163.6337 C.3     1  UNL1        0.0356
      6 C         140.7107  138.1290  163.1663 C.3     1  UNL1        0.0738
      7 C         142.4184  137.8209  161.2327 C.3     1  UNL1        0.0937
      8 C         143.5937  138.1525  162.1037 C.3     1  UNL1        0.1082
      9 N         144.7097  141.9450  162.4529 N.am    1  UNL1       -0.2921
     10 C         143.9588  140.6635  162.6624 C.2     1  UNL1        0.3007
     11 O         142.8224  140.6112  163.6399 O.2     1  UNL1       -0.2528
     12 N         144.3445  139.4341  161.8942 N.am    1  UNL1       -0.2875
     13 H         145.4556  141.9793  161.8112 H       1  UNL1        0.1508
     14 H         145.0904  139.4684  161.2526 H       1  UNL1        0.1510
     15 C         145.1188  142.6889  164.3968 C.3     1  UNL1        0.0197
     16 C         144.3241  143.1743  163.2210 C.3     1  UNL1        0.0583
     17 C         143.5294  143.6598  162.0451 C.3     1  UNL1        0.0197
     18 C         143.9384  144.4038  163.9890 C.3     1  UNL1        0.0197
     19 C         139.0030  138.4371  165.0999 C.3     1  UNL1        0.0910
     20 N         139.8348  139.2489  166.0480 N.am    1  UNL1       -0.3008
     21 C         139.3559  139.4893  167.4491 C.2     1  UNL1        0.2459
     22 O         138.0451  138.9177  167.9020 O.2     1  UNL1       -0.2701
     23 H         140.6951  139.6240  165.7507 H       1  UNL1        0.1497
     24 C         140.1877  140.3011  168.3971 C.ar    1  UNL1        0.0550
     25 C         139.8940  141.7590  168.5930 C.ar    1  UNL1        0.0160
     26 C         140.7258  142.5709  169.5411 C.ar    1  UNL1        0.0587
     27 CL        140.4321  144.0287  169.7370 Cl      1  UNL1       -0.0822
     28 C         141.8515  141.9249  170.2933 C.ar    1  UNL1        0.0228
     29 C         142.1452  140.4670  170.0974 C.ar    1  UNL1        0.0587
     30 CL        143.2707  139.8210  170.8496 Cl      1  UNL1       -0.0822
     31 C         141.3133  139.6551  169.1493 C.ar    1  UNL1        0.0160
@<TRIPOS>BOND
     1    15    16    1
     2    16    17    1
     3    16    18    1
     4    16     9    1
     5     9    10   am
     6    10    11    2
     7    10    12   am
     8    12     8    1
     9     8     7    1
    10     7     1    1
    11     1     2    1
    12     2     3    1
    13     3     4    1
    14     4     5    1
    15     5    19    1
    16    19    20    1
    17    20    21   am
    18    21    22    2
    19    21    24    1
    20    24    25   ar
    21    25    26   ar
    22    26    27    1
    23    26    28   ar
    24    28    29   ar
    25    29    30    1
    26    29    31   ar
    27     5     6    1
    28     6     1    1
    29    31    24   ar
    30     9    13    1
    31    12    14    1
    32    20    23    1
@<TRIPOS>MOLECULE
*****
 31 32 0 0 0
SMALL
GASTEIGER

@<TRIPOS>ATOM
      1 N         139.3822  139.4783  159.9992 N.3     1  UNL1       -0.2712
      2 C         140.7685  139.1302  159.5444 C.3     1  UNL1        0.0721
      3 C         141.6710  138.3288  160.4351 C.3     1  UNL1        0.0174
      4 C         141.1871  137.8754  161.7805 C.3     1  UNL1        0.0045
      5 C         139.8008  138.2235  162.2353 C.3     1  UNL1        0.0356
      6 C         138.8983  139.0249  161.3447 C.3     1  UNL1        0.0738
      7 C         138.4797  140.2797  159.1086 C.3     1  UNL1        0.0937
      8 C         138.6807  141.7600  158.9738 C.3     1  UNL1        0.1082
      9 N         137.8850  143.9725  162.1710 N.am    1  UNL1       -0.2921
     10 C         138.5878  143.0322  161.2373 C.2     1  UNL1        0.3007
     11 O         139.9003  142.4235  161.6333 O.2     1  UNL1       -0.2528
     12 N         137.9780  142.7004  159.9075 N.am    1  UNL1       -0.2875
     13 H         137.0235  144.3720  161.9111 H       1  UNL1        0.1508
     14 H         137.1165  143.0999  159.6476 H       1  UNL1        0.1510
     15 C         137.6623  143.2378  164.1485 C.3     1  UNL1        0.0197
     16 C         138.4947  144.3043  163.5007 C.3     1  UNL1        0.0583
     17 C         139.3272  145.3707  162.8529 C.3     1  UNL1        0.0197
     18 C         139.1045  144.6361  164.8304 C.3     1  UNL1        0.0197
     19 C         139.3168  137.7701  163.5809 C.3     1  UNL1        0.0910
     20 N         139.4213  138.6869  164.7635 N.am    1  UNL1       -0.3008
     21 C         140.7054  138.7737  165.5340 C.2     1  UNL1        0.2459
     22 O         141.8849  137.9437  165.1219 O.2     1  UNL1       -0.2701
     23 H         138.6472  139.2316  165.0339 H       1  UNL1        0.1497
     24 C         140.8099  139.6904  166.7166 C.ar    1  UNL1        0.0550
     25 C         142.0053  140.5835  166.8699 C.ar    1  UNL1        0.0160
     26 C         142.1098  141.5003  168.0525 C.ar    1  UNL1        0.0587
     27 CL        143.3051  142.3934  168.2059 Cl      1  UNL1       -0.0822
     28 C         141.0189  141.5239  169.0819 C.ar    1  UNL1        0.0228
     29 C         139.8236  140.6308  168.9286 C.ar    1  UNL1        0.0587
     30 CL        138.7327  140.6545  169.9579 Cl      1  UNL1       -0.0822
     31 C         139.7191  139.7141  167.7459 C.ar    1  UNL1        0.0160
@<TRIPOS>BOND
     1    15    16    1
     2    16    17    1
     3    16    18    1
     4    16     9    1
     5     9    10   am
     6    10    11    2
     7    10    12   am
     8    12     8    1
     9     8     7    1
    10     7     1    1
    11     1     2    1
    12     2     3    1
    13     3     4    1
    14     4     5    1
    15     5    19    1
    16    19    20    1
    17    20    21   am
    18    21    22    2
    19    21    24    1
    20    24    25   ar
    21    25    26   ar
    22    26    27    1
    23    26    28   ar
    24    28    29   ar
    25    29    30    1
    26    29    31   ar
    27     5     6    1
    28     6     1    1
    29    31    24   ar
    30     9    13    1
    31    12    14    1
    32    20    23    1
@<TRIPOS>MOLECULE
*****
 31 32 0 0 0
SMALL
GASTEIGER

@<TRIPOS>ATOM
      1 N         139.9097  139.0916  160.5128 N.3     1  UNL1       -0.2712
      2 C         138.4483  138.8064  160.6939 C.3     1  UNL1        0.0721
      3 C         137.9671  138.1158  161.9356 C.3     1  UNL1        0.0174
      4 C         138.9474  137.7105  162.9960 C.3     1  UNL1        0.0045
      5 C         140.4088  137.9956  162.8149 C.3     1  UNL1        0.0356
      6 C         140.8900  138.6862  161.5732 C.3     1  UNL1        0.0738
      7 C         140.3908  139.7821  159.2711 C.3     1  UNL1        0.0937
      8 C         140.4627  141.2797  159.2258 C.3     1  UNL1        0.1082
      9 N         138.1179  143.3438  161.6736 N.am    1  UNL1       -0.2921
     10 C         139.2671  142.5222  161.1692 C.2     1  UNL1        0.3007
     11 O         140.3697  142.1214  162.1038 O.2     1  UNL1       -0.2528
     12 N         139.3135  142.1013  159.7302 N.am    1  UNL1       -0.2875
     13 H         137.3942  143.6068  161.0602 H       1  UNL1        0.1508
     14 H         138.5898  142.3643  159.1168 H       1  UNL1        0.1510
     15 C         138.7448  145.0568  162.7563 C.3     1  UNL1        0.0197
     16 C         138.0714  143.7647  163.1125 C.3     1  UNL1        0.0583
     17 C         137.3981  142.4726  163.4687 C.3     1  UNL1        0.0197
     18 C         138.0249  144.1856  164.5516 C.3     1  UNL1        0.0197
     19 C         141.3892  137.5902  163.8754 C.3     1  UNL1        0.0910
     20 N         141.2528  138.1294  165.2684 N.am    1  UNL1       -0.3008
     21 C         141.6147  139.5557  165.5595 C.2     1  UNL1        0.2459
     22 O         142.1131  140.4428  164.4574 O.2     1  UNL1       -0.2701
     23 H         140.9257  137.5471  165.9918 H       1  UNL1        0.1497
     24 C         141.4782  140.0948  166.9526 C.ar    1  UNL1        0.0550
     25 C         142.6365  140.7901  167.6045 C.ar    1  UNL1        0.0160
     26 C         142.5000  141.3292  168.9976 C.ar    1  UNL1        0.0587
     27 CL        143.6583  142.0245  169.6495 Cl      1  UNL1       -0.0822
     28 C         141.2053  141.1730  169.7388 C.ar    1  UNL1        0.0228
     29 C         140.0470  140.4777  169.0868 C.ar    1  UNL1        0.0587
     30 CL        138.7523  140.3215  169.8280 Cl      1  UNL1       -0.0822
     31 C         140.1835  139.9386  167.6937 C.ar    1  UNL1        0.0160
@<TRIPOS>BOND
     1    15    16    1
     2    16    17    1
     3    16    18    1
     4    16     9    1
     5     9    10   am
     6    10    11    2
     7    10    12   am
     8    12     8    1
     9     8     7    1
    10     7     1    1
    11     1     2    1
    12     2     3    1
    13     3     4    1
    14     4     5    1
    15     5    19    1
    16    19    20    1
    17    20    21   am
    18    21    22    2
    19    21    24    1
    20    24    25   ar
    21    25    26   ar
    22    26    27    1
    23    26    28   ar
    24    28    29   ar
    25    29    30    1
    26    29    31   ar
    27     5     6    1
    28     6     1    1
    29    31    24   ar
    30     9    13    1
    31    12    14    1
    32    20    23    1
@<TRIPOS>MOLECULE
*****
 31 32 0 0 0
SMALL
GASTEIGER

@<TRIPOS>ATOM
      1 N         139.9856  138.8059  161.1951 N.3     1  UNL1       -0.2712
      2 C         141.1168  139.4768  160.4738 C.3     1  UNL1        0.0721
      3 C         142.4597  139.5962  161.1314 C.3     1  UNL1        0.0174
      4 C         142.6714  139.0448  162.5101 C.3     1  UNL1        0.0045
      5 C         141.5402  138.3739  163.2314 C.3     1  UNL1        0.0356
      6 C         140.1973  138.2544  162.5738 C.3     1  UNL1        0.0738
      7 C         138.6427  138.6864  160.5375 C.3     1  UNL1        0.0937
      8 C         137.6654  139.8215  160.6163 C.3     1  UNL1        0.1082
      9 N         137.5881  141.9635  163.9564 N.am    1  UNL1       -0.2921
     10 C         138.0201  141.4371  162.6199 C.2     1  UNL1        0.3007
     11 O         139.2388  141.9998  161.9504 O.2     1  UNL1       -0.2528
     12 N         137.2334  140.3479  161.9528 N.am    1  UNL1       -0.2875
     13 H         136.7882  141.5941  164.3958 H       1  UNL1        0.1508
     14 H         136.4335  139.9786  162.3922 H       1  UNL1        0.1510
     15 C         139.1613  142.0222  165.3781 C.3     1  UNL1        0.0197
     16 C         138.3747  143.0526  164.6235 C.3     1  UNL1        0.0583
     17 C         137.5881  144.0829  163.8688 C.3     1  UNL1        0.0197
     18 C         139.1614  144.1418  165.2906 C.3     1  UNL1        0.0197
     19 C         141.7519  137.8224  164.6102 C.3     1  UNL1        0.0910
     20 N         141.1743  138.5323  165.7987 N.am    1  UNL1       -0.3008
     21 C         141.9625  139.6078  166.4860 C.2     1  UNL1        0.2459
     22 O         143.3282  139.9734  165.9846 O.2     1  UNL1       -0.2701
     23 H         140.2780  138.2923  166.1277 H       1  UNL1        0.1497
     24 C         141.3850  140.3176  167.6744 C.ar    1  UNL1        0.0550
     25 C         140.0762  139.8683  168.2534 C.ar    1  UNL1        0.0160
     26 C         139.4986  140.5782  169.4418 C.ar    1  UNL1        0.0587
     27 CL        138.1898  140.1289  170.0208 Cl      1  UNL1       -0.0822
     28 C         140.2299  141.7373  170.0515 C.ar    1  UNL1        0.0228
     29 C         141.5387  142.1866  169.4725 C.ar    1  UNL1        0.0587
     30 CL        142.2700  143.3458  170.0821 Cl      1  UNL1       -0.0822
     31 C         142.1162  141.4767  168.2840 C.ar    1  UNL1        0.0160
@<TRIPOS>BOND
     1    15    16    1
     2    16    17    1
     3    16    18    1
     4    16     9    1
     5     9    10   am
     6    10    11    2
     7    10    12   am
     8    12     8    1
     9     8     7    1
    10     7     1    1
    11     1     2    1
    12     2     3    1
    13     3     4    1
    14     4     5    1
    15     5    19    1
    16    19    20    1
    17    20    21   am
    18    21    22    2
    19    21    24    1
    20    24    25   ar
    21    25    26   ar
    22    26    27    1
    23    26    28   ar
    24    28    29   ar
    25    29    30    1
    26    29    31   ar
    27     5     6    1
    28     6     1    1
    29    31    24   ar
    30     9    13    1
    31    12    14    1
    32    20    23    1
