@<TRIPOS>MOLECULE
*****
 33 37 0 0 0
SMALL
GASTEIGER

@<TRIPOS>ATOM
      1 C         141.4420  143.7623  161.6402 C.3     1  UNL1        0.0801
      2 C         140.2585  143.0315  162.2013 C.3     1  UNL1        0.0248
      3 C         140.3067  142.4867  163.5980 C.3     1  UNL1        0.0277
      4 C         141.5385  142.6727  164.4335 C.ar    1  UNL1       -0.0263
      5 C         141.5866  142.1279  165.8303 C.ar    1  UNL1       -0.0075
      6 C         142.8184  142.3140  166.6659 C.ar    1  UNL1       -0.0065
      7 C         144.0020  143.0449  166.1046 C.ar    1  UNL1       -0.0033
      8 C         143.9538  143.5897  164.7079 C.ar    1  UNL1       -0.0048
      9 C         142.7220  143.4036  163.8724 C.ar    1  UNL1       -0.0245
     10 C         142.6738  143.9484  162.4757 C.3     1  UNL1        0.0458
     11 O         139.5227  145.9636  160.9542 O.2     1  UNL1       -0.2734
     12 C         140.4342  145.4078  159.9004 C.2     1  UNL1        0.2420
     13 C         140.3860  145.9527  158.5037 C.3     1  UNL1        0.1587
     14 N         141.2975  145.3969  157.4499 N.3     1  UNL1       -0.2632
     15 C         142.2571  144.2963  157.7929 C.3     1  UNL1        0.0942
     16 C         142.3053  143.7514  159.1897 C.3     1  UNL1        0.1107
     17 N         141.3939  144.3072  160.2434 N.am    1  UNL1       -0.2783
     18 C         141.2493  145.9418  156.0532 C.3     1  UNL1        0.0773
     19 C         139.9336  146.3222  155.4417 C.3     1  UNL1        0.0437
     20 C         139.5590  147.7685  155.3077 C.ar    1  UNL1       -0.0206
     21 C         138.7162  148.4256  156.3603 C.ar    1  UNL1       -0.0019
     22 C         138.3416  149.8718  156.2264 C.ar    1  UNL1        0.0293
     23 C         138.8098  150.6611  155.0398 C.ar    1  UNL1        0.1401
     24 F         138.4352  152.1074  154.9059 F       1  UNL1       -0.2042
     25 C         139.6527  150.0040  153.9873 C.ar    1  UNL1        0.0293
     26 C         140.0272  148.5578  154.1212 C.ar    1  UNL1       -0.0019
     27 C         142.8666  141.7691  168.0626 C.3     1  UNL1        0.0993
     28 N         141.6247  141.7505  168.9037 N.3     1  UNL1       -0.2646
     29 C         140.8485  140.4774  169.0669 C.3     1  UNL1        0.1049
     30 C         139.6066  140.4588  169.9080 C.3     1  UNL1        0.1595
     31 O         139.1410  141.7133  170.5858 O.3     1  UNL1       -0.3508
     32 C         139.9172  142.9864  170.4225 C.3     1  UNL1        0.1595
     33 C         141.1591  143.0050  169.5814 C.3     1  UNL1        0.1049
@<TRIPOS>BOND
     1    11    12    2
     2    12    13    1
     3    13    14    1
     4    14    18    1
     5    18    19    1
     6    19    20    1
     7    20    21   ar
     8    21    22   ar
     9    22    23   ar
    10    23    24    1
    11    23    25   ar
    12    25    26   ar
    13    14    15    1
    14    15    16    1
    15    16    17    1
    16     1    17    1
    17     1     2    1
    18     2     3    1
    19     3     4    1
    20     4     5   ar
    21     5     6   ar
    22     6    27    1
    23    27    28    1
    24    28    29    1
    25    29    30    1
    26    30    31    1
    27    31    32    1
    28    32    33    1
    29     6     7   ar
    30     7     8   ar
    31     8     9   ar
    32     9    10    1
    33    17    12   am
    34    10     1    1
    35    26    20   ar
    36     9     4   ar
    37    33    28    1
@<TRIPOS>MOLECULE
*****
 33 37 0 0 0
SMALL
GASTEIGER

@<TRIPOS>ATOM
      1 C         141.9401  143.6088  161.8288 C.3     1  UNL1        0.0801
      2 C         142.6362  144.4424  162.8634 C.3     1  UNL1        0.0248
      3 C         142.8878  143.8829  164.2322 C.3     1  UNL1        0.0277
      4 C         142.4433  142.4898  164.5664 C.ar    1  UNL1       -0.0263
      5 C         142.6950  141.9303  165.9352 C.ar    1  UNL1       -0.0075
      6 C         142.2505  140.5372  166.2694 C.ar    1  UNL1       -0.0065
      7 C         141.5544  139.7035  165.2347 C.ar    1  UNL1       -0.0033
      8 C         141.3027  140.2630  163.8659 C.ar    1  UNL1       -0.0048
      9 C         141.7472  141.6562  163.5318 C.ar    1  UNL1       -0.0245
     10 C         141.4956  142.2157  162.1630 C.3     1  UNL1        0.0458
     11 O         139.6591  145.5049  161.3795 O.2     1  UNL1       -0.2734
     12 C         140.5479  145.1163  160.2353 C.2     1  UNL1        0.2420
     13 C         140.2962  145.6758  158.8665 C.3     1  UNL1        0.1587
     14 N         141.1850  145.2873  157.7223 N.3     1  UNL1       -0.2632
     15 C         142.3255  144.3392  157.9470 C.3     1  UNL1        0.0942
     16 C         142.5772  143.7797  159.3159 C.3     1  UNL1        0.1107
     17 N         141.6884  144.1683  160.4600 N.am    1  UNL1       -0.2783
     18 C         140.9333  145.8467  156.3536 C.3     1  UNL1        0.0773
     19 C         139.5558  146.3003  155.9704 C.3     1  UNL1        0.0437
     20 C         139.2782  147.7592  155.7592 C.ar    1  UNL1       -0.0206
     21 C         139.7141  148.4295  154.4900 C.ar    1  UNL1       -0.0019
     22 C         139.4365  149.8883  154.2788 C.ar    1  UNL1        0.0293
     23 C         138.7230  150.6769  155.3367 C.ar    1  UNL1        0.1401
     24 F         138.4454  152.1358  155.1254 F       1  UNL1       -0.2042
     25 C         138.2871  150.0066  156.6058 C.ar    1  UNL1        0.0293
     26 C         138.5648  148.5478  156.8170 C.ar    1  UNL1       -0.0019
     27 C         142.5022  139.9777  167.6382 C.3     1  UNL1        0.0993
     28 N         141.6417  140.4014  168.7915 N.3     1  UNL1       -0.2646
     29 C         142.2711  140.9804  170.0238 C.3     1  UNL1        0.1049
     30 C         141.4107  141.4041  171.1771 C.3     1  UNL1        0.1595
     31 O         139.9209  141.2488  171.0981 O.3     1  UNL1       -0.3508
     32 C         139.2915  140.6697  169.8658 C.3     1  UNL1        0.1595
     33 C         140.1519  140.2460  168.7125 C.3     1  UNL1        0.1049
@<TRIPOS>BOND
     1    11    12    2
     2    12    13    1
     3    13    14    1
     4    14    18    1
     5    18    19    1
     6    19    20    1
     7    20    21   ar
     8    21    22   ar
     9    22    23   ar
    10    23    24    1
    11    23    25   ar
    12    25    26   ar
    13    14    15    1
    14    15    16    1
    15    16    17    1
    16     1    17    1
    17     1     2    1
    18     2     3    1
    19     3     4    1
    20     4     5   ar
    21     5     6   ar
    22     6    27    1
    23    27    28    1
    24    28    29    1
    25    29    30    1
    26    30    31    1
    27    31    32    1
    28    32    33    1
    29     6     7   ar
    30     7     8   ar
    31     8     9   ar
    32     9    10    1
    33    17    12   am
    34    10     1    1
    35    26    20   ar
    36     9     4   ar
    37    33    28    1
@<TRIPOS>MOLECULE
*****
 33 37 0 0 0
SMALL
GASTEIGER

@<TRIPOS>ATOM
      1 C         141.6322  139.4951  161.6016 C.3     1  UNL1        0.0801
      2 C         141.2425  140.9167  161.8795 C.3     1  UNL1        0.0248
      3 C         141.3651  141.4700  163.2683 C.3     1  UNL1        0.0277
      4 C         141.8772  140.6018  164.3791 C.ar    1  UNL1       -0.0263
      5 C         141.9998  141.1552  165.7680 C.ar    1  UNL1       -0.0075
      6 C         142.5119  140.2870  166.8788 C.ar    1  UNL1       -0.0065
      7 C         142.9015  138.8653  166.6007 C.ar    1  UNL1       -0.0033
      8 C         142.7790  138.3120  165.2119 C.ar    1  UNL1       -0.0048
      9 C         142.2669  139.1802  164.1011 C.ar    1  UNL1       -0.0245
     10 C         142.1443  138.6269  162.7124 C.3     1  UNL1        0.0458
     11 O         144.0986  138.9078  159.9979 O.2     1  UNL1       -0.2734
     12 C         142.7429  138.6480  159.4109 C.2     1  UNL1        0.2420
     13 C         142.6204  138.0946  158.0221 C.3     1  UNL1        0.1587
     14 N         141.2646  137.8349  157.4351 N.3     1  UNL1       -0.2632
     15 C         140.0314  138.1286  158.2369 C.3     1  UNL1        0.0942
     16 C         140.1539  138.6820  159.6258 C.3     1  UNL1        0.1107
     17 N         141.5096  138.9417  160.2127 N.am    1  UNL1       -0.2783
     18 C         141.1422  137.2815  156.0463 C.3     1  UNL1        0.0773
     19 C         142.2588  136.4682  155.4619 C.3     1  UNL1        0.0437
     20 C         142.4077  135.0225  155.8333 C.ar    1  UNL1       -0.0206
     21 C         141.5750  133.9818  155.1452 C.ar    1  UNL1       -0.0019
     22 C         141.7239  132.5362  155.5166 C.ar    1  UNL1        0.0293
     23 C         142.7056  132.1313  156.5759 C.ar    1  UNL1        0.1401
     24 F         142.8545  130.6856  156.9472 F       1  UNL1       -0.2042
     25 C         143.5384  133.1719  157.2640 C.ar    1  UNL1        0.0293
     26 C         143.3894  134.6176  156.8926 C.ar    1  UNL1       -0.0019
     27 C         142.6345  140.8403  168.2675 C.3     1  UNL1        0.0993
     28 N         141.4010  141.1501  169.0630 N.3     1  UNL1       -0.2646
     29 C         141.2739  142.4687  169.7666 C.3     1  UNL1        0.1049
     30 C         140.0405  142.7785  170.5621 C.3     1  UNL1        0.1595
     31 O         138.9343  141.7696  170.6540 O.3     1  UNL1       -0.3508
     32 C         139.0614  140.4510  169.9504 C.3     1  UNL1        0.1595
     33 C         140.2948  140.1412  169.1549 C.3     1  UNL1        0.1049
@<TRIPOS>BOND
     1    11    12    2
     2    12    13    1
     3    13    14    1
     4    14    18    1
     5    18    19    1
     6    19    20    1
     7    20    21   ar
     8    21    22   ar
     9    22    23   ar
    10    23    24    1
    11    23    25   ar
    12    25    26   ar
    13    14    15    1
    14    15    16    1
    15    16    17    1
    16     1    17    1
    17     1     2    1
    18     2     3    1
    19     3     4    1
    20     4     5   ar
    21     5     6   ar
    22     6    27    1
    23    27    28    1
    24    28    29    1
    25    29    30    1
    26    30    31    1
    27    31    32    1
    28    32    33    1
    29     6     7   ar
    30     7     8   ar
    31     8     9   ar
    32     9    10    1
    33    17    12   am
    34    10     1    1
    35    26    20   ar
    36     9     4   ar
    37    33    28    1
@<TRIPOS>MOLECULE
*****
 33 37 0 0 0
SMALL
GASTEIGER

@<TRIPOS>ATOM
      1 C         139.5127  143.0537  161.6866 C.3     1  UNL1        0.0801
      2 C         138.1344  142.7919  162.2172 C.3     1  UNL1        0.0248
      3 C         137.9575  142.1182  163.5456 C.3     1  UNL1        0.0277
      4 C         139.1590  141.7062  164.3435 C.ar    1  UNL1       -0.0263
      5 C         138.9821  141.0325  165.6720 C.ar    1  UNL1       -0.0075
      6 C         140.1837  140.6205  166.4699 C.ar    1  UNL1       -0.0065
      7 C         141.5621  140.8823  165.9393 C.ar    1  UNL1       -0.0033
      8 C         141.7389  141.5560  164.6108 C.ar    1  UNL1       -0.0048
      9 C         140.5374  141.9680  163.8130 C.ar    1  UNL1       -0.0245
     10 C         140.7143  142.6417  162.4845 C.3     1  UNL1        0.0458
     11 O         140.4409  145.9037  161.5620 O.2     1  UNL1       -0.2734
     12 C         140.1537  145.1524  160.2958 C.2     1  UNL1        0.2420
     13 C         140.3306  145.8262  158.9674 C.3     1  UNL1        0.1587
     14 N         140.0434  145.0749  157.7012 N.3     1  UNL1       -0.2632
     15 C         139.5794  143.6498  157.7635 C.3     1  UNL1        0.0942
     16 C         139.4025  142.9761  159.0920 C.3     1  UNL1        0.1107
     17 N         139.6896  143.7274  160.3581 N.am    1  UNL1       -0.2783
     18 C         140.2204  145.7486  156.3728 C.3     1  UNL1        0.0773
     19 C         139.0510  146.4100  155.7057 C.3     1  UNL1        0.0437
     20 C         139.0638  147.8905  155.4646 C.ar    1  UNL1       -0.0206
     21 C         139.6848  148.4416  154.2153 C.ar    1  UNL1       -0.0019
     22 C         139.6976  149.9220  153.9743 C.ar    1  UNL1        0.0293
     23 C         139.0894  150.8513  154.9824 C.ar    1  UNL1        0.1401
     24 F         139.1023  152.3318  154.7413 F       1  UNL1       -0.2042
     25 C         138.4684  150.3003  156.2317 C.ar    1  UNL1        0.0293
     26 C         138.4556  148.8199  156.4727 C.ar    1  UNL1       -0.0019
     27 C         140.0068  139.9468  167.7983 C.3     1  UNL1        0.0993
     28 N         140.4655  140.6298  169.0526 N.3     1  UNL1       -0.2646
     29 C         139.7774  141.8773  169.5219 C.3     1  UNL1        0.1049
     30 C         140.2360  142.5603  170.7761 C.3     1  UNL1        0.1595
     31 O         141.3827  141.9958  171.5611 O.3     1  UNL1       -0.3508
     32 C         142.0708  140.7482  171.0919 C.3     1  UNL1        0.1595
     33 C         141.6122  140.0652  169.8377 C.3     1  UNL1        0.1049
@<TRIPOS>BOND
     1    11    12    2
     2    12    13    1
     3    13    14    1
     4    14    18    1
     5    18    19    1
     6    19    20    1
     7    20    21   ar
     8    21    22   ar
     9    22    23   ar
    10    23    24    1
    11    23    25   ar
    12    25    26   ar
    13    14    15    1
    14    15    16    1
    15    16    17    1
    16     1    17    1
    17     1     2    1
    18     2     3    1
    19     3     4    1
    20     4     5   ar
    21     5     6   ar
    22     6    27    1
    23    27    28    1
    24    28    29    1
    25    29    30    1
    26    30    31    1
    27    31    32    1
    28    32    33    1
    29     6     7   ar
    30     7     8   ar
    31     8     9   ar
    32     9    10    1
    33    17    12   am
    34    10     1    1
    35    26    20   ar
    36     9     4   ar
    37    33    28    1
@<TRIPOS>MOLECULE
*****
 33 37 0 0 0
SMALL
GASTEIGER

@<TRIPOS>ATOM
      1 C         141.7422  138.6099  161.8485 C.3     1  UNL1        0.0801
      2 C         141.3796  137.4962  162.7855 C.3     1  UNL1        0.0248
      3 C         141.4733  137.7030  164.2682 C.3     1  UNL1        0.0277
      4 C         141.9296  139.0237  164.8139 C.ar    1  UNL1       -0.0263
      5 C         142.0233  139.2305  166.2966 C.ar    1  UNL1       -0.0075
      6 C         142.4795  140.5511  166.8423 C.ar    1  UNL1       -0.0065
      7 C         142.8420  141.6649  165.9052 C.ar    1  UNL1       -0.0033
      8 C         142.7483  141.4581  164.4226 C.ar    1  UNL1       -0.0048
      9 C         142.2921  140.1374  163.8769 C.ar    1  UNL1       -0.0245
     10 C         142.1984  139.9306  162.3942 C.3     1  UNL1        0.0458
     11 O         139.0651  138.6475  160.4950 O.2     1  UNL1       -0.2734
     12 C         140.3099  138.4219  159.6890 C.2     1  UNL1        0.2420
     13 C         140.2162  138.2151  158.2063 C.3     1  UNL1        0.1587
     14 N         141.4610  137.9895  157.4003 N.3     1  UNL1       -0.2632
     15 C         142.7996  137.9707  158.0770 C.3     1  UNL1        0.0942
     16 C         142.8932  138.1775  159.5598 C.3     1  UNL1        0.1107
     17 N         141.6485  138.4031  160.3657 N.am    1  UNL1       -0.2783
     18 C         141.3673  137.7827  155.9176 C.3     1  UNL1        0.0773
     19 C         142.3437  136.8804  155.2230 C.3     1  UNL1        0.0437
     20 C         142.3819  135.4183  155.5562 C.ar    1  UNL1       -0.0206
     21 C         141.3354  134.4959  155.0049 C.ar    1  UNL1       -0.0019
     22 C         141.3736  133.0339  155.3381 C.ar    1  UNL1        0.0293
     23 C         142.4583  132.4943  156.2225 C.ar    1  UNL1        0.1401
     24 F         142.4964  131.0323  156.5557 F       1  UNL1       -0.2042
     25 C         143.5048  133.4168  156.7738 C.ar    1  UNL1        0.0293
     26 C         143.4666  134.8788  156.4407 C.ar    1  UNL1       -0.0019
     27 C         142.5732  140.7580  168.3250 C.3     1  UNL1        0.0993
     28 N         141.3483  141.1231  169.1103 N.3     1  UNL1       -0.2646
     29 C         140.2265  140.1374  169.2514 C.3     1  UNL1        0.1049
     30 C         139.0017  140.5024  170.0366 C.3     1  UNL1        0.1595
     31 O         138.8987  141.8531  170.6806 O.3     1  UNL1       -0.3508
     32 C         140.0206  142.8388  170.5395 C.3     1  UNL1        0.1595
     33 C         141.2454  142.4738  169.7543 C.3     1  UNL1        0.1049
@<TRIPOS>BOND
     1    11    12    2
     2    12    13    1
     3    13    14    1
     4    14    18    1
     5    18    19    1
     6    19    20    1
     7    20    21   ar
     8    21    22   ar
     9    22    23   ar
    10    23    24    1
    11    23    25   ar
    12    25    26   ar
    13    14    15    1
    14    15    16    1
    15    16    17    1
    16     1    17    1
    17     1     2    1
    18     2     3    1
    19     3     4    1
    20     4     5   ar
    21     5     6   ar
    22     6    27    1
    23    27    28    1
    24    28    29    1
    25    29    30    1
    26    30    31    1
    27    31    32    1
    28    32    33    1
    29     6     7   ar
    30     7     8   ar
    31     8     9   ar
    32     9    10    1
    33    17    12   am
    34    10     1    1
    35    26    20   ar
    36     9     4   ar
    37    33    28    1
@<TRIPOS>MOLECULE
*****
 33 37 0 0 0
SMALL
GASTEIGER

@<TRIPOS>ATOM
      1 C         140.7721  139.0371  161.9411 C.3     1  UNL1        0.0801
      2 C         141.3996  140.2929  162.4695 C.3     1  UNL1        0.0248
      3 C         141.1378  140.7253  163.8818 C.3     1  UNL1        0.0277
      4 C         140.2485  139.9019  164.7656 C.ar    1  UNL1       -0.0263
      5 C         139.9867  140.3343  166.1779 C.ar    1  UNL1       -0.0075
      6 C         139.0974  139.5109  167.0618 C.ar    1  UNL1       -0.0065
      7 C         138.4699  138.2551  166.5333 C.ar    1  UNL1       -0.0033
      8 C         138.7317  137.8227  165.1211 C.ar    1  UNL1       -0.0048
      9 C         139.6210  138.6461  164.2372 C.ar    1  UNL1       -0.0245
     10 C         139.8828  138.2137  162.8250 C.3     1  UNL1        0.0458
     11 O         143.4471  137.9054  161.1903 O.2     1  UNL1       -0.2734
     12 C         142.3713  138.0388  160.1534 C.2     1  UNL1        0.2420
     13 C         142.6332  137.6064  158.7412 C.3     1  UNL1        0.1587
     14 N         141.5574  137.7398  157.7043 N.3     1  UNL1       -0.2632
     15 C         140.2199  138.3057  158.0797 C.3     1  UNL1        0.0942
     16 C         139.9582  138.7381  159.4920 C.3     1  UNL1        0.1107
     17 N         141.0339  138.6047  160.5288 N.am    1  UNL1       -0.2783
     18 C         141.8193  137.3074  156.2921 C.3     1  UNL1        0.0773
     19 C         141.3177  135.9787  155.8094 C.3     1  UNL1        0.0437
     20 C         142.2345  134.7916  155.7938 C.ar    1  UNL1       -0.0206
     21 C         143.1993  134.5742  156.9215 C.ar    1  UNL1       -0.0019
     22 C         144.1161  133.3871  156.9058 C.ar    1  UNL1        0.0293
     23 C         144.0680  132.4173  155.7624 C.ar    1  UNL1        0.1401
     24 F         144.9848  131.2302  155.7468 F       1  UNL1       -0.2042
     25 C         143.1032  132.6347  154.6347 C.ar    1  UNL1        0.0293
     26 C         142.1864  133.8219  154.6504 C.ar    1  UNL1       -0.0019
     27 C         138.8356  139.9433  168.4740 C.3     1  UNL1        0.0993
     28 N         139.9570  140.4776  169.3149 N.3     1  UNL1       -0.2646
     29 C         141.1819  139.6439  169.5490 C.3     1  UNL1        0.1049
     30 C         142.3032  140.1781  170.3899 C.3     1  UNL1        0.1595
     31 O         142.1997  141.5460  170.9967 O.3     1  UNL1       -0.3508
     32 C         140.9749  142.3796  170.7626 C.3     1  UNL1        0.1595
     33 C         139.8535  141.8454  169.9218 C.3     1  UNL1        0.1049
@<TRIPOS>BOND
     1    11    12    2
     2    12    13    1
     3    13    14    1
     4    14    18    1
     5    18    19    1
     6    19    20    1
     7    20    21   ar
     8    21    22   ar
     9    22    23   ar
    10    23    24    1
    11    23    25   ar
    12    25    26   ar
    13    14    15    1
    14    15    16    1
    15    16    17    1
    16     1    17    1
    17     1     2    1
    18     2     3    1
    19     3     4    1
    20     4     5   ar
    21     5     6   ar
    22     6    27    1
    23    27    28    1
    24    28    29    1
    25    29    30    1
    26    30    31    1
    27    31    32    1
    28    32    33    1
    29     6     7   ar
    30     7     8   ar
    31     8     9   ar
    32     9    10    1
    33    17    12   am
    34    10     1    1
    35    26    20   ar
    36     9     4   ar
    37    33    28    1
@<TRIPOS>MOLECULE
*****
 33 37 0 0 0
SMALL
GASTEIGER

@<TRIPOS>ATOM
      1 C         143.3437  139.8910  161.6543 C.3     1  UNL1        0.0801
      2 C         144.4373  139.3977  162.5546 C.3     1  UNL1        0.0248
      3 C         144.4715  139.8196  163.9936 C.3     1  UNL1        0.0277
      4 C         143.4123  140.7349  164.5323 C.ar    1  UNL1       -0.0263
      5 C         143.4466  141.1568  165.9713 C.ar    1  UNL1       -0.0075
      6 C         142.3873  142.0721  166.5100 C.ar    1  UNL1       -0.0065
      7 C         141.2937  142.5655  165.6095 C.ar    1  UNL1       -0.0033
      8 C         141.2594  142.1436  164.1706 C.ar    1  UNL1       -0.0048
      9 C         142.3187  141.2283  163.6319 C.ar    1  UNL1       -0.0245
     10 C         142.2844  140.8063  162.1929 C.3     1  UNL1        0.0458
     11 O         142.0401  137.3020  160.8810 O.2     1  UNL1       -0.2734
     12 C         142.6576  138.1746  159.8285 C.2     1  UNL1        0.2420
     13 C         142.6232  137.7526  158.3896 C.3     1  UNL1        0.1587
     14 N         143.2407  138.6252  157.3371 N.3     1  UNL1       -0.2632
     15 C         143.8925  139.9196  157.7238 C.3     1  UNL1        0.0942
     16 C         143.9268  140.3416  159.1629 C.3     1  UNL1        0.1107
     17 N         143.3094  139.4691  160.2152 N.am    1  UNL1       -0.2783
     18 C         143.2064  138.2032  155.8982 C.3     1  UNL1        0.0773
     19 C         143.9952  137.0096  155.4476 C.3     1  UNL1        0.0437
     20 C         143.3669  135.6475  155.4591 C.ar    1  UNL1       -0.0206
     21 C         143.6193  134.7149  156.6065 C.ar    1  UNL1       -0.0019
     22 C         142.9911  133.3529  156.6180 C.ar    1  UNL1        0.0293
     23 C         142.1105  132.9235  155.4822 C.ar    1  UNL1        0.1401
     24 F         141.4823  131.5613  155.4937 F       1  UNL1       -0.2042
     25 C         141.8581  133.8561  154.3348 C.ar    1  UNL1        0.0293
     26 C         142.4864  135.2181  154.3233 C.ar    1  UNL1       -0.0019
     27 C         142.4216  142.4941  167.9490 C.3     1  UNL1        0.0993
     28 N         141.2504  142.2097  168.8421 N.3     1  UNL1       -0.2646
     29 C         140.5482  140.8867  168.7596 C.3     1  UNL1        0.1049
     30 C         139.3772  140.6023  169.6527 C.3     1  UNL1        0.1595
     31 O         138.9083  141.6407  170.6282 O.3     1  UNL1       -0.3508
     32 C         139.6105  142.9637  170.7107 C.3     1  UNL1        0.1595
     33 C         140.7816  143.2481  169.8176 C.3     1  UNL1        0.1049
@<TRIPOS>BOND
     1    11    12    2
     2    12    13    1
     3    13    14    1
     4    14    18    1
     5    18    19    1
     6    19    20    1
     7    20    21   ar
     8    21    22   ar
     9    22    23   ar
    10    23    24    1
    11    23    25   ar
    12    25    26   ar
    13    14    15    1
    14    15    16    1
    15    16    17    1
    16     1    17    1
    17     1     2    1
    18     2     3    1
    19     3     4    1
    20     4     5   ar
    21     5     6   ar
    22     6    27    1
    23    27    28    1
    24    28    29    1
    25    29    30    1
    26    30    31    1
    27    31    32    1
    28    32    33    1
    29     6     7   ar
    30     7     8   ar
    31     8     9   ar
    32     9    10    1
    33    17    12   am
    34    10     1    1
    35    26    20   ar
    36     9     4   ar
    37    33    28    1
@<TRIPOS>MOLECULE
*****
 33 37 0 0 0
SMALL
GASTEIGER

@<TRIPOS>ATOM
      1 C         140.9530  138.8975  160.4166 C.3     1  UNL1        0.0801
      2 C         141.3223  140.3158  160.7360 C.3     1  UNL1        0.0248
      3 C         141.0292  140.8793  162.0948 C.3     1  UNL1        0.0277
      4 C         140.3668  140.0246  163.1343 C.ar    1  UNL1       -0.0263
      5 C         140.0737  140.5882  164.4932 C.ar    1  UNL1       -0.0075
      6 C         139.4113  139.7334  165.5327 C.ar    1  UNL1       -0.0065
      7 C         139.0419  138.3150  165.2133 C.ar    1  UNL1       -0.0033
      8 C         139.3350  137.7515  163.8545 C.ar    1  UNL1       -0.0048
      9 C         139.9974  138.6063  162.8150 C.ar    1  UNL1       -0.0245
     10 C         140.2905  138.0428  161.4562 C.3     1  UNL1        0.0458
     11 O         138.8784  139.0402  158.2543 O.2     1  UNL1       -0.2734
     12 C         140.2088  138.4053  157.9766 C.2     1  UNL1        0.2420
     13 C         140.5018  137.8418  156.6177 C.3     1  UNL1        0.1587
     14 N         141.8322  137.2068  156.3400 N.3     1  UNL1       -0.2632
     15 C         142.8694  137.1355  157.4212 C.3     1  UNL1        0.0942
     16 C         142.5764  137.6991  158.7801 C.3     1  UNL1        0.1107
     17 N         141.2460  138.3340  159.0577 N.am    1  UNL1       -0.2783
     18 C         142.1252  136.6433  154.9811 C.3     1  UNL1        0.0773
     19 C         141.5717  135.3055  154.5888 C.3     1  UNL1        0.0437
     20 C         142.4072  134.0706  154.7535 C.ar    1  UNL1       -0.0206
     21 C         143.3754  133.9668  155.8944 C.ar    1  UNL1       -0.0019
     22 C         144.2108  132.7319  156.0591 C.ar    1  UNL1        0.0293
     23 C         144.0780  131.6008  155.0828 C.ar    1  UNL1        0.1401
     24 F         144.9134  130.3659  155.2475 F       1  UNL1       -0.2042
     25 C         143.1098  131.7046  153.9419 C.ar    1  UNL1        0.0293
     26 C         142.2744  132.9395  153.7772 C.ar    1  UNL1       -0.0019
     27 C         139.1182  140.2969  166.8916 C.3     1  UNL1        0.0993
     28 N         140.0999  140.1074  168.0098 N.3     1  UNL1       -0.2646
     29 C         139.6560  140.2709  169.4333 C.3     1  UNL1        0.1049
     30 C         140.6376  140.0815  170.5515 C.3     1  UNL1        0.1595
     31 O         142.0631  139.7285  170.2463 O.3     1  UNL1       -0.3508
     32 C         142.5071  139.5650  168.8228 C.3     1  UNL1        0.1595
     33 C         141.5254  139.7545  167.7046 C.3     1  UNL1        0.1049
@<TRIPOS>BOND
     1    11    12    2
     2    12    13    1
     3    13    14    1
     4    14    18    1
     5    18    19    1
     6    19    20    1
     7    20    21   ar
     8    21    22   ar
     9    22    23   ar
    10    23    24    1
    11    23    25   ar
    12    25    26   ar
    13    14    15    1
    14    15    16    1
    15    16    17    1
    16     1    17    1
    17     1     2    1
    18     2     3    1
    19     3     4    1
    20     4     5   ar
    21     5     6   ar
    22     6    27    1
    23    27    28    1
    24    28    29    1
    25    29    30    1
    26    30    31    1
    27    31    32    1
    28    32    33    1
    29     6     7   ar
    30     7     8   ar
    31     8     9   ar
    32     9    10    1
    33    17    12   am
    34    10     1    1
    35    26    20   ar
    36     9     4   ar
    37    33    28    1
@<TRIPOS>MOLECULE
*****
 33 37 0 0 0
SMALL
GASTEIGER

@<TRIPOS>ATOM
      1 C         140.5845  139.6288  159.5755 C.3     1  UNL1        0.0801
      2 C         142.0192  139.2809  159.8414 C.3     1  UNL1        0.0248
      3 C         142.7284  138.2974  158.9584 C.3     1  UNL1        0.0277
      4 C         142.0031  137.6619  157.8096 C.ar    1  UNL1       -0.0263
      5 C         142.7124  136.6783  156.9266 C.ar    1  UNL1       -0.0075
      6 C         141.9870  136.0428  155.7777 C.ar    1  UNL1       -0.0065
      7 C         140.5523  136.3907  155.5119 C.ar    1  UNL1       -0.0033
      8 C         139.8430  137.3742  156.3948 C.ar    1  UNL1       -0.0048
      9 C         140.5684  138.0098  157.5437 C.ar    1  UNL1       -0.0245
     10 C         139.8592  138.9932  158.4267 C.3     1  UNL1        0.0458
     11 O         139.3554  138.7143  162.1548 O.2     1  UNL1       -0.2734
     12 C         139.2606  140.1551  161.7482 C.2     1  UNL1        0.2420
     13 C         138.5513  141.1385  162.6311 C.3     1  UNL1        0.1587
     14 N         138.4566  142.5793  162.2245 N.3     1  UNL1       -0.2632
     15 C         139.0711  143.0365  160.9348 C.3     1  UNL1        0.0942
     16 C         139.7805  142.0530  160.0518 C.3     1  UNL1        0.1107
     17 N         139.8752  140.6123  160.4585 N.am    1  UNL1       -0.2783
     18 C         137.7473  143.5627  163.1074 C.3     1  UNL1        0.0773
     19 C         138.4849  144.2311  164.2295 C.3     1  UNL1        0.0437
     20 C         139.9804  144.1404  164.3031 C.ar    1  UNL1       -0.0206
     21 C         140.6270  143.0590  165.1170 C.ar    1  UNL1       -0.0019
     22 C         142.1224  142.9683  165.1906 C.ar    1  UNL1        0.0293
     23 C         142.9712  143.9590  164.4503 C.ar    1  UNL1        0.1401
     24 F         144.4667  143.8682  164.5239 F       1  UNL1       -0.2042
     25 C         142.3246  145.0404  163.6364 C.ar    1  UNL1        0.0293
     26 C         140.8292  145.1311  163.5628 C.ar    1  UNL1       -0.0019
     27 C         142.6963  135.0593  154.8948 C.3     1  UNL1        0.0993
     28 N         142.7707  133.6142  155.2900 N.3     1  UNL1       -0.2646
     29 C         141.6047  132.7058  155.0347 C.3     1  UNL1        0.1049
     30 C         141.6791  131.2607  155.4299 C.3     1  UNL1        0.1595
     31 O         142.9195  130.7241  156.0805 O.3     1  UNL1       -0.3508
     32 C         144.0855  131.6325  156.3358 C.3     1  UNL1        0.1595
     33 C         144.0111  133.0775  155.9406 C.3     1  UNL1        0.1049
@<TRIPOS>BOND
     1    11    12    2
     2    12    13    1
     3    13    14    1
     4    14    18    1
     5    18    19    1
     6    19    20    1
     7    20    21   ar
     8    21    22   ar
     9    22    23   ar
    10    23    24    1
    11    23    25   ar
    12    25    26   ar
    13    14    15    1
    14    15    16    1
    15    16    17    1
    16     1    17    1
    17     1     2    1
    18     2     3    1
    19     3     4    1
    20     4     5   ar
    21     5     6   ar
    22     6    27    1
    23    27    28    1
    24    28    29    1
    25    29    30    1
    26    30    31    1
    27    31    32    1
    28    32    33    1
    29     6     7   ar
    30     7     8   ar
    31     8     9   ar
    32     9    10    1
    33    17    12   am
    34    10     1    1
    35    26    20   ar
    36     9     4   ar
    37    33    28    1
