@<TRIPOS>MOLECULE
*****
 32 36 0 0 0
SMALL
GASTEIGER

@<TRIPOS>ATOM
      1 C         140.5969  143.6658  163.3177 C.ar    1  UNL1        0.0045
      2 C         141.1887  142.3090  163.0752 C.ar    1  UNL1        0.0002
      3 C         141.4752  141.3982  164.2320 C.ar    1  UNL1        0.0016
      4 C         141.1698  141.8441  165.6313 C.ar    1  UNL1        0.0200
      5 C         140.5780  143.2009  165.8738 C.ar    1  UNL1        0.0810
      6 C         140.2916  144.1118  164.7170 C.ar    1  UNL1        0.0192
      7 N         140.3848  143.3648  167.3522 N.2     1  UNL1       -0.2488
      8 C         140.8572  142.1093  168.0235 C.2     1  UNL1        0.0726
      9 C         140.9082  141.7006  169.4657 C.3     1  UNL1        0.1382
     10 C         141.4444  140.3519  169.8445 C.2     1  UNL1       -0.0102
     11 C         141.9296  139.4120  168.7809 C.2     1  UNL1        0.0106
     12 C         141.8785  139.8208  167.3386 C.2     1  UNL1        0.0455
     13 C         141.3424  141.1694  166.9599 C.2     1  UNL1        0.0289
     14 C         140.3340  145.6447  158.4293 C.3     1  UNL1        0.1538
     15 N         140.1896  145.4863  159.9139 N.ar    1  UNL1       -0.2473
     16 C         140.6598  144.3158  160.7256 C.ar    1  UNL1        0.0967
     17 C         140.3105  144.5768  162.1609 C.ar    1  UNL1        0.0397
     18 C         139.6244  145.9086  162.2362 C.ar    1  UNL1        0.1216
     19 N         139.5497  146.4707  160.8475 N.ar    1  UNL1       -0.1676
     20 C         140.4230  142.6405  170.5294 C.2     1  UNL1        0.2287
     21 N         140.0404  144.0459  170.1707 N.am    1  UNL1       -0.3282
     22 O         140.3204  142.1750  171.9516 O.2     1  UNL1       -0.2746
     23 H         140.1078  144.3514  169.2373 H       1  UNL1        0.1450
     24 H         139.7220  144.6627  170.8688 H       1  UNL1        0.1450
     25 N         142.3637  138.8809  166.2751 N.pl3   1  UNL1       -0.3340
     26 H         143.3020  138.5827  166.2724 H       1  UNL1        0.1468
     27 C         141.4193  138.3953  165.2157 C.3     1  UNL1        0.0690
     28 C         139.9457  138.3441  165.4908 C.3     1  UNL1        0.0195
     29 C         139.0013  137.8585  164.4314 C.3     1  UNL1        0.0017
     30 C         139.5306  137.4240  163.0968 C.3     1  UNL1        0.0001
     31 C         141.0042  137.4751  162.8217 C.3     1  UNL1        0.0017
     32 C         141.9486  137.9608  163.8811 C.3     1  UNL1        0.0195
@<TRIPOS>BOND
     1    14    15    1
     2    15    16   ar
     3    16    17   ar
     4    17     1    1
     5     1     2   ar
     6     2     3   ar
     7     3     4   ar
     8     4     5   ar
     9     5     6   ar
    10     5     7    1
    11     7     8    2
    12     8     9    1
    13     9    20    1
    14    20    21   am
    15    20    22    2
    16     9    10    1
    17    10    11    2
    18    11    12    1
    19    12    25    1
    20    25    27    1
    21    27    28    1
    22    28    29    1
    23    29    30    1
    24    30    31    1
    25    31    32    1
    26    12    13    2
    27    17    18   ar
    28    18    19   ar
    29    19    15   ar
    30     6     1   ar
    31    13     8    1
    32    13     4    1
    33    32    27    1
    34    21    23    1
    35    21    24    1
    36    25    26    1
@<TRIPOS>MOLECULE
*****
 32 36 0 0 0
SMALL
GASTEIGER

@<TRIPOS>ATOM
      1 C         141.7564  139.1032  158.2717 C.ar    1  UNL1        0.0045
      2 C         140.6610  138.4437  159.0559 C.ar    1  UNL1        0.0002
      3 C         139.8161  139.2552  159.9926 C.ar    1  UNL1        0.0016
      4 C         140.0666  140.7262  160.1452 C.ar    1  UNL1        0.0200
      5 C         141.1621  141.3857  159.3610 C.ar    1  UNL1        0.0810
      6 C         142.0070  140.5742  158.4243 C.ar    1  UNL1        0.0192
      7 N         141.1742  142.8428  159.7168 N.2     1  UNL1       -0.2488
      8 C         140.0862  143.0839  160.7210 C.2     1  UNL1        0.0726
      9 C         139.6305  144.3255  161.4284 C.3     1  UNL1        0.1382
     10 C         138.4901  144.2590  162.4006 C.2     1  UNL1       -0.0102
     11 C         137.8056  142.9509  162.6654 C.2     1  UNL1        0.0106
     12 C         138.2614  141.7092  161.9579 C.2     1  UNL1        0.0455
     13 C         139.4017  141.7757  160.9857 C.2     1  UNL1        0.0289
     14 C         143.8914  135.0192  155.6940 C.3     1  UNL1        0.1538
     15 N         143.5827  136.4144  156.1501 N.ar    1  UNL1       -0.2473
     16 C         142.5820  136.7979  157.1997 C.ar    1  UNL1        0.0967
     17 C         142.6014  138.2917  157.3349 C.ar    1  UNL1        0.0397
     18 C         143.6140  138.8314  156.3688 C.ar    1  UNL1        0.1216
     19 N         144.2205  137.6713  155.6366 N.ar    1  UNL1       -0.1676
     20 C         140.3150  145.6338  161.1636 C.2     1  UNL1        0.2287
     21 N         141.5724  145.6705  160.3465 N.am    1  UNL1       -0.3282
     22 O         139.7422  146.9053  161.7161 O.2     1  UNL1       -0.2746
     23 H         141.9483  144.8359  159.9839 H       1  UNL1        0.1450
     24 H         142.0216  146.5291  160.1727 H       1  UNL1        0.1450
     25 N         137.5769  140.4011  162.2226 N.pl3   1  UNL1       -0.3340
     26 H         136.8179  140.1203  161.6619 H       1  UNL1        0.1468
     27 C         138.0486  139.5207  163.3418 C.3     1  UNL1        0.0690
     28 C         138.5769  138.1486  163.0449 C.3     1  UNL1        0.0195
     29 C         139.0487  137.2682  164.1640 C.3     1  UNL1        0.0017
     30 C         138.9922  137.7600  165.5800 C.3     1  UNL1        0.0001
     31 C         138.4639  139.1321  165.8769 C.3     1  UNL1        0.0017
     32 C         137.9921  140.0125  164.7577 C.3     1  UNL1        0.0195
@<TRIPOS>BOND
     1    14    15    1
     2    15    16   ar
     3    16    17   ar
     4    17     1    1
     5     1     2   ar
     6     2     3   ar
     7     3     4   ar
     8     4     5   ar
     9     5     6   ar
    10     5     7    1
    11     7     8    2
    12     8     9    1
    13     9    20    1
    14    20    21   am
    15    20    22    2
    16     9    10    1
    17    10    11    2
    18    11    12    1
    19    12    25    1
    20    25    27    1
    21    27    28    1
    22    28    29    1
    23    29    30    1
    24    30    31    1
    25    31    32    1
    26    12    13    2
    27    17    18   ar
    28    18    19   ar
    29    19    15   ar
    30     6     1   ar
    31    13     8    1
    32    13     4    1
    33    32    27    1
    34    21    23    1
    35    21    24    1
    36    25    26    1
@<TRIPOS>MOLECULE
*****
 32 36 0 0 0
SMALL
GASTEIGER

@<TRIPOS>ATOM
      1 C         140.9186  138.8634  160.9459 C.ar    1  UNL1        0.0045
      2 C         141.7250  140.0047  161.4909 C.ar    1  UNL1        0.0002
      3 C         141.5431  140.4387  162.9151 C.ar    1  UNL1        0.0016
      4 C         140.5547  139.7315  163.7943 C.ar    1  UNL1        0.0200
      5 C         139.7483  138.5902  163.2493 C.ar    1  UNL1        0.0810
      6 C         139.9302  138.1562  161.8250 C.ar    1  UNL1        0.0192
      7 N         138.8565  138.0876  164.3456 N.2     1  UNL1       -0.2488
      8 C         139.1118  138.9182  165.5683 C.2     1  UNL1        0.0726
      9 C         138.5241  138.8807  166.9478 C.3     1  UNL1        0.1382
     10 C         138.9861  139.8592  167.9867 C.2     1  UNL1       -0.0102
     11 C         140.0356  140.8752  167.6460 C.2     1  UNL1        0.0106
     12 C         140.6233  140.9127  166.2664 C.2     1  UNL1        0.0455
     13 C         140.1614  139.9342  165.2276 C.2     1  UNL1        0.0289
     14 C         143.0984  137.0856  156.4772 C.3     1  UNL1        0.1538
     15 N         142.1024  137.6121  157.4675 N.ar    1  UNL1       -0.2473
     16 C         142.3756  137.9328  158.9072 C.ar    1  UNL1        0.0967
     17 C         141.1004  138.4293  159.5216 C.ar    1  UNL1        0.0397
     18 C         140.0391  138.4154  158.4617 C.ar    1  UNL1        0.1216
     19 N         140.6584  137.9104  157.1922 N.ar    1  UNL1       -0.1676
     20 C         137.4745  137.8646  167.2886 C.2     1  UNL1        0.2287
     21 N         137.3214  136.6330  166.4462 N.am    1  UNL1       -0.3282
     22 O         136.5780  138.0803  168.4718 O.2     1  UNL1       -0.2746
     23 H         137.9098  136.4914  165.6697 H       1  UNL1        0.1450
     24 H         136.6325  135.9662  166.6699 H       1  UNL1        0.1450
     25 N         141.6729  141.9287  165.9257 N.pl3   1  UNL1       -0.3340
     26 H         142.5937  141.8145  166.2547 H       1  UNL1        0.1468
     27 C         141.3195  143.1186  165.0836 C.3     1  UNL1        0.0690
     28 C         142.3904  143.8461  164.3262 C.3     1  UNL1        0.0195
     29 C         142.0370  145.0361  163.4841 C.3     1  UNL1        0.0017
     30 C         140.6126  145.4986  163.3995 C.3     1  UNL1        0.0001
     31 C         139.5417  144.7712  164.1569 C.3     1  UNL1        0.0017
     32 C         139.8951  143.5812  164.9990 C.3     1  UNL1        0.0195
@<TRIPOS>BOND
     1    14    15    1
     2    15    16   ar
     3    16    17   ar
     4    17     1    1
     5     1     2   ar
     6     2     3   ar
     7     3     4   ar
     8     4     5   ar
     9     5     6   ar
    10     5     7    1
    11     7     8    2
    12     8     9    1
    13     9    20    1
    14    20    21   am
    15    20    22    2
    16     9    10    1
    17    10    11    2
    18    11    12    1
    19    12    25    1
    20    25    27    1
    21    27    28    1
    22    28    29    1
    23    29    30    1
    24    30    31    1
    25    31    32    1
    26    12    13    2
    27    17    18   ar
    28    18    19   ar
    29    19    15   ar
    30     6     1   ar
    31    13     8    1
    32    13     4    1
    33    32    27    1
    34    21    23    1
    35    21    24    1
    36    25    26    1
@<TRIPOS>MOLECULE
*****
 32 36 0 0 0
SMALL
GASTEIGER

@<TRIPOS>ATOM
      1 C         139.5916  139.5067  160.1553 C.ar    1  UNL1        0.0045
      2 C         140.5136  140.6179  160.5615 C.ar    1  UNL1        0.0002
      3 C         140.6780  140.9637  162.0118 C.ar    1  UNL1        0.0016
      4 C         139.9204  140.1982  163.0559 C.ar    1  UNL1        0.0200
      5 C         138.9984  139.0870  162.6497 C.ar    1  UNL1        0.0810
      6 C         138.8340  138.7413  161.1994 C.ar    1  UNL1        0.0192
      7 N         138.3878  138.5133  163.8938 N.2     1  UNL1       -0.2488
      8 C         138.9325  139.2699  165.0690 C.2     1  UNL1        0.0726
      9 C         138.6882  139.1451  166.5436 C.3     1  UNL1        0.1382
     10 C         139.3913  140.0617  167.5005 C.2     1  UNL1       -0.0102
     11 C         140.3385  141.1031  166.9826 C.2     1  UNL1        0.0106
     12 C         140.5827  141.2278  165.5079 C.2     1  UNL1        0.0455
     13 C         139.8797  140.3113  164.5511 C.2     1  UNL1        0.0289
     14 C         139.9458  137.0084  155.5169 C.3     1  UNL1        0.1538
     15 N         139.5899  138.0125  156.5730 N.ar    1  UNL1       -0.2473
     16 C         140.0033  137.9607  158.0139 C.ar    1  UNL1        0.0967
     17 C         139.4271  139.1609  158.7050 C.ar    1  UNL1        0.0397
     18 C         138.6575  139.9545  157.6911 C.ar    1  UNL1        0.1216
     19 N         138.7581  139.2448  156.3735 N.ar    1  UNL1       -0.1676
     20 C         137.7409  138.1036  167.0616 C.2     1  UNL1        0.2287
     21 N         137.5486  136.8224  166.3057 N.am    1  UNL1       -0.3282
     22 O         136.9861  138.3435  168.3354 O.2     1  UNL1       -0.2746
     23 H         138.0440  136.6649  165.4696 H       1  UNL1        0.1450
     24 H         136.9269  136.1389  166.6456 H       1  UNL1        0.1450
     25 N         141.5300  142.2692  164.9900 N.pl3   1  UNL1       -0.3340
     26 H         141.2278  143.2001  164.8834 H       1  UNL1        0.1468
     27 C         142.9377  141.8923  164.6345 C.3     1  UNL1        0.0690
     28 C         143.3873  140.4670  164.7616 C.3     1  UNL1        0.0195
     29 C         144.7950  140.0900  164.4061 C.3     1  UNL1        0.0017
     30 C         145.7530  141.1385  163.9235 C.3     1  UNL1        0.0001
     31 C         145.3034  142.5638  163.7964 C.3     1  UNL1        0.0017
     32 C         143.8957  142.9407  164.1519 C.3     1  UNL1        0.0195
@<TRIPOS>BOND
     1    14    15    1
     2    15    16   ar
     3    16    17   ar
     4    17     1    1
     5     1     2   ar
     6     2     3   ar
     7     3     4   ar
     8     4     5   ar
     9     5     6   ar
    10     5     7    1
    11     7     8    2
    12     8     9    1
    13     9    20    1
    14    20    21   am
    15    20    22    2
    16     9    10    1
    17    10    11    2
    18    11    12    1
    19    12    25    1
    20    25    27    1
    21    27    28    1
    22    28    29    1
    23    29    30    1
    24    30    31    1
    25    31    32    1
    26    12    13    2
    27    17    18   ar
    28    18    19   ar
    29    19    15   ar
    30     6     1   ar
    31    13     8    1
    32    13     4    1
    33    32    27    1
    34    21    23    1
    35    21    24    1
    36    25    26    1
@<TRIPOS>MOLECULE
*****
 32 36 0 0 0
SMALL
GASTEIGER

@<TRIPOS>ATOM
      1 C         141.5979  138.6136  158.9435 C.ar    1  UNL1        0.0045
      2 C         141.7384  138.0363  160.3208 C.ar    1  UNL1        0.0002
      3 C         141.6650  138.9329  161.5210 C.ar    1  UNL1        0.0016
      4 C         141.4510  140.4070  161.3439 C.ar    1  UNL1        0.0200
      5 C         141.3105  140.9844  159.9667 C.ar    1  UNL1        0.0810
      6 C         141.3839  140.0877  158.7665 C.ar    1  UNL1        0.0192
      7 N         141.1092  142.4646  160.1030 N.2     1  UNL1       -0.2488
      8 C         141.1254  142.8020  161.5644 C.2     1  UNL1        0.0726
      9 C         140.9751  144.1029  162.2958 C.3     1  UNL1        0.1382
     10 C         141.0360  144.1321  163.7943 C.2     1  UNL1       -0.0102
     11 C         141.2472  142.8605  164.5613 C.2     1  UNL1        0.0106
     12 C         141.3975  141.5596  163.8298 C.2     1  UNL1        0.0455
     13 C         141.3366  141.5304  162.3314 C.2     1  UNL1        0.0289
     14 C         143.4171  135.3168  155.2418 C.3     1  UNL1        0.1538
     15 N         142.5075  136.2015  156.0418 N.ar    1  UNL1       -0.2473
     16 C         142.8846  136.9705  157.2732 C.ar    1  UNL1        0.0967
     17 C         141.6713  137.7170  157.7432 C.ar    1  UNL1        0.0397
     18 C         140.5444  137.4093  156.8023 C.ar    1  UNL1        0.1216
     19 N         141.0612  136.4727  155.7507 N.ar    1  UNL1       -0.1676
     20 C         140.7638  145.3746  161.5288 C.2     1  UNL1        0.2287
     21 N         141.4981  145.6046  160.2412 N.am    1  UNL1       -0.3282
     22 O         139.8183  146.4162  162.0495 O.2     1  UNL1       -0.2746
     23 H         142.1186  144.9210  159.8995 H       1  UNL1        0.1450
     24 H         141.3594  146.4393  159.7378 H       1  UNL1        0.1450
     25 N         141.6088  140.2880  164.5968 N.pl3   1  UNL1       -0.3340
     26 H         142.5163  139.9208  164.7007 H       1  UNL1        0.1468
     27 C         140.4373  139.5758  165.2055 C.3     1  UNL1        0.0690
     28 C         139.9313  138.3040  164.5920 C.3     1  UNL1        0.0195
     29 C         138.7598  137.5918  165.2006 C.3     1  UNL1        0.0017
     30 C         138.0943  138.1515  166.4229 C.3     1  UNL1        0.0001
     31 C         138.6003  139.4233  167.0365 C.3     1  UNL1        0.0017
     32 C         139.7718  140.1354  166.4278 C.3     1  UNL1        0.0195
@<TRIPOS>BOND
     1    14    15    1
     2    15    16   ar
     3    16    17   ar
     4    17     1    1
     5     1     2   ar
     6     2     3   ar
     7     3     4   ar
     8     4     5   ar
     9     5     6   ar
    10     5     7    1
    11     7     8    2
    12     8     9    1
    13     9    20    1
    14    20    21   am
    15    20    22    2
    16     9    10    1
    17    10    11    2
    18    11    12    1
    19    12    25    1
    20    25    27    1
    21    27    28    1
    22    28    29    1
    23    29    30    1
    24    30    31    1
    25    31    32    1
    26    12    13    2
    27    17    18   ar
    28    18    19   ar
    29    19    15   ar
    30     6     1   ar
    31    13     8    1
    32    13     4    1
    33    32    27    1
    34    21    23    1
    35    21    24    1
    36    25    26    1
@<TRIPOS>MOLECULE
*****
 32 36 0 0 0
SMALL
GASTEIGER

@<TRIPOS>ATOM
      1 C         139.8658  139.1763  165.1313 C.ar    1  UNL1        0.0045
      2 C         141.3573  139.3351  165.1114 C.ar    1  UNL1        0.0002
      3 C         142.0937  139.3387  163.8047 C.ar    1  UNL1        0.0016
      4 C         141.3387  139.1835  162.5178 C.ar    1  UNL1        0.0200
      5 C         139.8473  139.0248  162.5377 C.ar    1  UNL1        0.0810
      6 C         139.1109  139.0212  163.8445 C.ar    1  UNL1        0.0192
      7 N         139.3763  138.8925  161.1198 N.2     1  UNL1       -0.2488
      8 C         140.5767  138.9695  160.2235 C.2     1  UNL1        0.0726
      9 C         140.7219  138.8991  158.7323 C.3     1  UNL1        0.1382
     10 C         142.0801  139.0086  158.1050 C.2     1  UNL1       -0.0102
     11 C         143.2929  139.1884  158.9691 C.2     1  UNL1        0.0106
     12 C         143.1476  139.2588  160.4603 C.2     1  UNL1        0.0455
     13 C         141.7895  139.1494  161.0875 C.2     1  UNL1        0.0289
     14 C         138.4804  140.2232  170.1179 C.3     1  UNL1        0.1538
     15 N         138.4926  139.6539  168.7302 N.ar    1  UNL1       -0.2473
     16 C         139.4998  139.9581  167.6611 C.ar    1  UNL1        0.0967
     17 C         139.1293  139.1727  166.4381 C.ar    1  UNL1        0.0397
     18 C         137.8930  138.3831  166.7512 C.ar    1  UNL1        0.1216
     19 N         137.4995  138.6805  168.1677 N.ar    1  UNL1       -0.1676
     20 C         139.5090  138.7192  157.8681 C.2     1  UNL1        0.2287
     21 N         138.3827  139.7072  157.9414 N.am    1  UNL1       -0.3282
     22 O         139.4224  137.5514  156.9308 O.2     1  UNL1       -0.2746
     23 H         138.4395  140.4737  158.5566 H       1  UNL1        0.1450
     24 H         137.5866  139.5892  157.3743 H       1  UNL1        0.1450
     25 N         144.3605  139.4387  161.3244 N.pl3   1  UNL1       -0.3340
     26 H         145.0267  138.7172  161.3939 H       1  UNL1        0.1468
     27 C         144.5583  140.7179  162.0824 C.3     1  UNL1        0.0690
     28 C         145.2342  140.6994  163.4214 C.3     1  UNL1        0.0195
     29 C         145.4320  141.9785  164.1794 C.3     1  UNL1        0.0017
     30 C         144.9540  143.2762  163.5985 C.3     1  UNL1        0.0001
     31 C         144.2781  143.2947  162.2595 C.3     1  UNL1        0.0017
     32 C         144.0803  142.0156  161.5015 C.3     1  UNL1        0.0195
@<TRIPOS>BOND
     1    14    15    1
     2    15    16   ar
     3    16    17   ar
     4    17     1    1
     5     1     2   ar
     6     2     3   ar
     7     3     4   ar
     8     4     5   ar
     9     5     6   ar
    10     5     7    1
    11     7     8    2
    12     8     9    1
    13     9    20    1
    14    20    21   am
    15    20    22    2
    16     9    10    1
    17    10    11    2
    18    11    12    1
    19    12    25    1
    20    25    27    1
    21    27    28    1
    22    28    29    1
    23    29    30    1
    24    30    31    1
    25    31    32    1
    26    12    13    2
    27    17    18   ar
    28    18    19   ar
    29    19    15   ar
    30     6     1   ar
    31    13     8    1
    32    13     4    1
    33    32    27    1
    34    21    23    1
    35    21    24    1
    36    25    26    1
@<TRIPOS>MOLECULE
*****
 32 36 0 0 0
SMALL
GASTEIGER

@<TRIPOS>ATOM
      1 C         139.1714  141.5134  159.7153 C.ar    1  UNL1        0.0045
      2 C         139.2108  140.2289  160.4889 C.ar    1  UNL1        0.0002
      3 C         140.0849  140.1105  161.7020 C.ar    1  UNL1        0.0016
      4 C         140.9197  141.2766  162.1417 C.ar    1  UNL1        0.0200
      5 C         140.8803  142.5612  161.3681 C.ar    1  UNL1        0.0810
      6 C         140.0062  142.6796  160.1550 C.ar    1  UNL1        0.0192
      7 N         141.8065  143.5334  162.0367 N.2     1  UNL1       -0.2488
      8 C         142.4183  142.8497  163.2234 C.2     1  UNL1        0.0726
      9 C         143.4036  143.3170  164.2532 C.3     1  UNL1        0.1382
     10 C         143.8409  142.3895  165.3480 C.2     1  UNL1       -0.0102
     11 C         143.2929  140.9948  165.4130 C.2     1  UNL1        0.0106
     12 C         142.3075  140.5275  164.3831 C.2     1  UNL1        0.0455
     13 C         141.8702  141.4549  163.2883 C.2     1  UNL1        0.0289
     14 C         136.7155  143.4611  155.4661 C.3     1  UNL1        0.1538
     15 N         137.1684  142.5272  156.5489 N.ar    1  UNL1       -0.2473
     16 C         138.1334  142.8551  157.6495 C.ar    1  UNL1        0.0967
     17 C         138.2972  141.6319  158.5021 C.ar    1  UNL1        0.0397
     18 C         137.4334  140.5480  157.9286 C.ar    1  UNL1        0.1216
     19 N         136.7357  141.1013  156.7215 N.ar    1  UNL1       -0.1676
     20 C         143.9518  144.7119  164.1883 C.2     1  UNL1        0.2287
     21 N         143.9046  145.4770  162.8990 N.am    1  UNL1       -0.3282
     22 O         144.5470  145.3415  165.4128 O.2     1  UNL1       -0.2746
     23 H         143.5139  145.0638  162.0954 H       1  UNL1        0.1450
     24 H         144.2644  146.3924  162.8565 H       1  UNL1        0.1450
     25 N         141.7594  139.1327  164.4480 N.pl3   1  UNL1       -0.3340
     26 H         142.2392  138.3943  164.0077 H       1  UNL1        0.1468
     27 C         140.4803  138.8630  165.1836 C.3     1  UNL1        0.0690
     28 C         140.0363  139.7862  166.2793 C.3     1  UNL1        0.0195
     29 C         138.7572  139.5165  167.0150 C.3     1  UNL1        0.0017
     30 C         137.9221  138.3235  166.6550 C.3     1  UNL1        0.0001
     31 C         138.3662  137.4003  165.5593 C.3     1  UNL1        0.0017
     32 C         139.6453  137.6701  164.8236 C.3     1  UNL1        0.0195
@<TRIPOS>BOND
     1    14    15    1
     2    15    16   ar
     3    16    17   ar
     4    17     1    1
     5     1     2   ar
     6     2     3   ar
     7     3     4   ar
     8     4     5   ar
     9     5     6   ar
    10     5     7    1
    11     7     8    2
    12     8     9    1
    13     9    20    1
    14    20    21   am
    15    20    22    2
    16     9    10    1
    17    10    11    2
    18    11    12    1
    19    12    25    1
    20    25    27    1
    21    27    28    1
    22    28    29    1
    23    29    30    1
    24    30    31    1
    25    31    32    1
    26    12    13    2
    27    17    18   ar
    28    18    19   ar
    29    19    15   ar
    30     6     1   ar
    31    13     8    1
    32    13     4    1
    33    32    27    1
    34    21    23    1
    35    21    24    1
    36    25    26    1
@<TRIPOS>MOLECULE
*****
 32 36 0 0 0
SMALL
GASTEIGER

@<TRIPOS>ATOM
      1 C         141.1391  138.9807  160.6391 C.ar    1  UNL1        0.0045
      2 C         140.1687  140.1028  160.8608 C.ar    1  UNL1        0.0002
      3 C         139.9855  140.6753  162.2350 C.ar    1  UNL1        0.0016
      4 C         140.7726  140.1258  163.3876 C.ar    1  UNL1        0.0200
      5 C         141.7430  139.0037  163.1659 C.ar    1  UNL1        0.0810
      6 C         141.9262  138.4311  161.7916 C.ar    1  UNL1        0.0192
      7 N         142.3745  138.6696  164.4848 N.2     1  UNL1       -0.2488
      8 C         141.7943  139.5852  165.5217 C.2     1  UNL1        0.0726
      9 C         142.0397  139.7157  166.9957 C.3     1  UNL1        0.1382
     10 C         141.2950  140.7463  167.7916 C.2     1  UNL1       -0.0102
     11 C         140.3050  141.6463  167.1135 C.2     1  UNL1        0.0106
     12 C         140.0597  141.5157  165.6394 C.2     1  UNL1        0.0455
     13 C         140.8043  140.4852  164.8436 C.2     1  UNL1        0.0289
     14 C         143.2956  136.6791  156.4043 C.3     1  UNL1        0.1538
     15 N         142.3136  137.3502  157.3183 N.ar    1  UNL1       -0.2473
     16 C         142.5776  137.7855  158.7292 C.ar    1  UNL1        0.0967
     17 C         141.3223  138.4081  159.2648 C.ar    1  UNL1        0.0397
     18 C         140.2826  138.3575  158.1848 C.ar    1  UNL1        0.1216
     19 N         140.8952  137.7037  156.9818 N.ar    1  UNL1       -0.1676
     20 C         143.0297  138.8157  167.6738 C.2     1  UNL1        0.2287
     21 N         143.9958  138.0115  166.8553 N.am    1  UNL1       -0.3282
     22 O         143.0537  138.7199  169.1706 O.2     1  UNL1       -0.2746
     23 H         143.9800  138.0744  165.8729 H       1  UNL1        0.1450
     24 H         144.6455  137.4208  167.3004 H       1  UNL1        0.1450
     25 N         139.0697  142.4157  164.9613 N.pl3   1  UNL1       -0.3340
     26 H         138.1043  142.2566  165.0707 H       1  UNL1        0.1468
     27 C         139.5505  143.5582  164.1166 C.3     1  UNL1        0.0690
     28 C         140.9557  144.0616  164.2655 C.3     1  UNL1        0.0195
     29 C         141.4365  145.2041  163.4207 C.3     1  UNL1        0.0017
     30 C         140.5122  145.8432  162.4271 C.3     1  UNL1        0.0001
     31 C         139.1071  145.3398  162.2782 C.3     1  UNL1        0.0017
     32 C         138.6263  144.1973  163.1230 C.3     1  UNL1        0.0195
@<TRIPOS>BOND
     1    14    15    1
     2    15    16   ar
     3    16    17   ar
     4    17     1    1
     5     1     2   ar
     6     2     3   ar
     7     3     4   ar
     8     4     5   ar
     9     5     6   ar
    10     5     7    1
    11     7     8    2
    12     8     9    1
    13     9    20    1
    14    20    21   am
    15    20    22    2
    16     9    10    1
    17    10    11    2
    18    11    12    1
    19    12    25    1
    20    25    27    1
    21    27    28    1
    22    28    29    1
    23    29    30    1
    24    30    31    1
    25    31    32    1
    26    12    13    2
    27    17    18   ar
    28    18    19   ar
    29    19    15   ar
    30     6     1   ar
    31    13     8    1
    32    13     4    1
    33    32    27    1
    34    21    23    1
    35    21    24    1
    36    25    26    1
@<TRIPOS>MOLECULE
*****
 32 36 0 0 0
SMALL
GASTEIGER

@<TRIPOS>ATOM
      1 C         138.3281  140.8422  159.3792 C.ar    1  UNL1        0.0045
      2 C         138.9693  142.1309  159.8009 C.ar    1  UNL1        0.0002
      3 C         139.2825  142.3747  161.2474 C.ar    1  UNL1        0.0016
      4 C         138.9544  141.3296  162.2722 C.ar    1  UNL1        0.0200
      5 C         138.3132  140.0408  161.8505 C.ar    1  UNL1        0.0810
      6 C         138.0001  139.7971  160.4040 C.ar    1  UNL1        0.0192
      7 N         138.1069  139.2026  163.0772 N.2     1  UNL1       -0.2488
      8 C         138.6207  139.9734  164.2571 C.2     1  UNL1        0.0726
      9 C         138.6791  139.6479  165.7201 C.3     1  UNL1        0.1382
     10 C         139.2614  140.6371  166.6858 C.2     1  UNL1       -0.0102
     11 C         139.7852  141.9517  166.1883 C.2     1  UNL1        0.0106
     12 C         139.7267  142.2771  164.7252 C.2     1  UNL1        0.0455
     13 C         139.1445  141.2879  163.7596 C.2     1  UNL1        0.0289
     14 C         136.0097  141.0456  154.6395 C.3     1  UNL1        0.1538
     15 N         136.9492  140.6919  155.7540 N.ar    1  UNL1       -0.2473
     16 C         136.8864  141.2134  157.1590 C.ar    1  UNL1        0.0967
     17 C         138.0149  140.5984  157.9326 C.ar    1  UNL1        0.0397
     18 C         138.7752  139.6969  157.0056 C.ar    1  UNL1        0.1216
     19 N         138.1166  139.7547  155.6592 N.ar    1  UNL1       -0.1676
     20 C         138.1553  138.3333  166.2177 C.2     1  UNL1        0.2287
     21 N         138.5539  137.0596  165.5330 N.am    1  UNL1       -0.3282
     22 O         137.2330  138.2925  167.3999 O.2     1  UNL1       -0.2746
     23 H         139.1592  137.0864  164.7571 H       1  UNL1        0.1450
     24 H         138.2101  136.1968  165.8596 H       1  UNL1        0.1450
     25 N         140.2505  143.5916  164.2277 N.pl3   1  UNL1       -0.3340
     26 H         139.6655  144.3834  164.2198 H       1  UNL1        0.1468
     27 C         141.6657  143.6999  163.7422 C.3     1  UNL1        0.0690
     28 C         142.3501  145.0344  163.7174 C.3     1  UNL1        0.0195
     29 C         143.7652  145.1426  163.2319 C.3     1  UNL1        0.0017
     30 C         144.4960  143.9163  162.7714 C.3     1  UNL1        0.0001
     31 C         143.8116  142.5818  162.7962 C.3     1  UNL1        0.0017
     32 C         142.3965  142.4736  163.2817 C.3     1  UNL1        0.0195
@<TRIPOS>BOND
     1    14    15    1
     2    15    16   ar
     3    16    17   ar
     4    17     1    1
     5     1     2   ar
     6     2     3   ar
     7     3     4   ar
     8     4     5   ar
     9     5     6   ar
    10     5     7    1
    11     7     8    2
    12     8     9    1
    13     9    20    1
    14    20    21   am
    15    20    22    2
    16     9    10    1
    17    10    11    2
    18    11    12    1
    19    12    25    1
    20    25    27    1
    21    27    28    1
    22    28    29    1
    23    29    30    1
    24    30    31    1
    25    31    32    1
    26    12    13    2
    27    17    18   ar
    28    18    19   ar
    29    19    15   ar
    30     6     1   ar
    31    13     8    1
    32    13     4    1
    33    32    27    1
    34    21    23    1
    35    21    24    1
    36    25    26    1
