@<TRIPOS>MOLECULE
*****
 34 37 0 0 0
SMALL
GASTEIGER

@<TRIPOS>ATOM
      1 N         144.1148  139.9446  163.6985 N.3     1  UNL1       -0.2653
      2 C         145.1251  140.8957  163.1287 C.3     1  UNL1        0.1036
      3 C         144.7726  141.7415  161.9412 C.3     1  UNL1        0.1470
      4 C         144.4200  142.5873  160.7535 C.3     1  UNL1        0.1035
      5 N         143.0572  142.4820  160.1358 N.3     1  UNL1       -0.2673
      6 C         142.0469  141.5309  160.7057 C.3     1  UNL1        0.1035
      7 C         142.3994  140.6851  161.8932 C.3     1  UNL1        0.1470
      8 C         142.7520  139.8393  163.0808 C.3     1  UNL1        0.1036
      9 O         143.4097  141.6362  161.3234 O.3     1  UNL1       -0.3530
     10 C         144.4673  139.0988  164.8861 C.3     1  UNL1        0.1202
     11 C         143.3813  138.4739  165.7107 C.3     1  UNL1        0.2228
     12 O         143.3770  138.6471  167.2007 O.3     1  UNL1       -0.4717
     13 C         141.3710  142.2289  169.0437 C.ar    1  UNL1        0.0709
     14 C         141.7898  142.2621  167.6037 C.ar    1  UNL1        0.0135
     15 C         142.4584  141.0681  166.9894 C.ar    1  UNL1        0.0399
     16 C         142.7084  139.8410  167.8150 C.ar    1  UNL1        0.1659
     17 C         142.2896  139.8078  169.2550 C.ar    1  UNL1        0.1745
     18 F         142.5395  138.5807  170.0806 F       1  UNL1       -0.2009
     19 C         141.6209  141.0018  169.8694 C.ar    1  UNL1        0.0430
     20 N         140.0337  144.6167  170.2723 N.1     1  UNL1       -0.1908
     21 C         140.7024  143.4228  169.6580 C.1     1  UNL1        0.1005
     22 C         142.7047  143.3278  158.9482 C.3     1  UNL1        0.0913
     23 C         141.7888  144.5046  159.1109 C.3     1  UNL1        0.1087
     24 N         141.7882  145.2829  160.3932 N.3     1  UNL1       -0.1780
     25 H         141.6082  146.2562  160.1468 H       1  UNL1        0.1488
     26 S         140.8239  144.9274  161.4857 S.O2    1  UNL1        0.0603
     27 O         141.9618  144.8285  162.4579 O.2     1  UNL1       -0.1530
     28 O         139.6859  145.0262  160.5135 O.2     1  UNL1       -0.1530
     29 C         139.8595  144.5719  162.5783 C.ar    1  UNL1        0.1219
     30 C         140.1562  144.9605  163.9963 C.ar    1  UNL1        0.0199
     31 C         139.1919  144.6050  165.0889 C.ar    1  UNL1        0.0014
     32 C         137.9309  143.8609  164.7634 C.ar    1  UNL1        0.0001
     33 C         137.6341  143.4723  163.3453 C.ar    1  UNL1        0.0014
     34 C         138.5984  143.8277  162.2528 C.ar    1  UNL1        0.0199
@<TRIPOS>BOND
     1    20    21    3
     2    21    13    1
     3    13    14   ar
     4    14    15   ar
     5    15    16   ar
     6    16    12    1
     7    12    11    1
     8    11    10    1
     9    10     1    1
    10     1     2    1
    11     2     3    1
    12     3     4    1
    13     4     5    1
    14     5    22    1
    15    22    23    1
    16    23    24    1
    17    24    26    1
    18    26    27    2
    19    26    28    2
    20    26    29    1
    21    29    30   ar
    22    30    31   ar
    23    31    32   ar
    24    32    33   ar
    25    33    34   ar
    26     5     6    1
    27     6     7    1
    28     7     8    1
    29     7     9    1
    30    16    17   ar
    31    17    18    1
    32    17    19   ar
    33    19    13   ar
    34     8     1    1
    35     9     3    1
    36    34    29   ar
    37    24    25    1
@<TRIPOS>MOLECULE
*****
 34 37 0 0 0
SMALL
GASTEIGER

@<TRIPOS>ATOM
      1 N         139.7957  138.8584  162.4804 N.3     1  UNL1       -0.2653
      2 C         141.2407  139.2283  162.6387 C.3     1  UNL1        0.1036
      3 C         141.8424  140.2915  161.7683 C.3     1  UNL1        0.1470
      4 C         142.4441  141.3547  160.8979 C.3     1  UNL1        0.1035
      5 N         141.6008  142.0479  159.8692 N.3     1  UNL1       -0.2673
      6 C         140.1557  141.6779  159.7109 C.3     1  UNL1        0.1035
      7 C         139.5541  140.6147  160.5813 C.3     1  UNL1        0.1470
      8 C         138.9524  139.5516  161.4517 C.3     1  UNL1        0.1036
      9 O         140.9990  140.9847  160.7396 O.3     1  UNL1       -0.3530
     10 C         139.1940  137.7951  163.3509 C.3     1  UNL1        0.1202
     11 C         139.1776  137.9662  164.8409 C.3     1  UNL1        0.2228
     12 O         138.4153  139.1017  165.4572 O.3     1  UNL1       -0.4717
     13 C         140.4356  141.8248  168.4157 C.ar    1  UNL1        0.0709
     14 C         139.6793  140.6225  168.8980 C.ar    1  UNL1        0.0135
     15 C         139.0059  139.7149  167.9118 C.ar    1  UNL1        0.0399
     16 C         139.0887  140.0094  166.4433 C.ar    1  UNL1        0.1659
     17 C         139.8450  141.2116  165.9610 C.ar    1  UNL1        0.1745
     18 F         139.9279  141.5061  164.4926 F       1  UNL1       -0.2009
     19 C         140.5185  142.1194  166.9472 C.ar    1  UNL1        0.0430
     20 N         141.7825  143.6402  170.3880 N.1     1  UNL1       -0.1908
     21 C         141.1091  142.7325  169.4019 C.1     1  UNL1        0.1005
     22 C         142.2024  143.1111  158.9988 C.3     1  UNL1        0.0913
     23 C         141.7170  144.5268  159.0999 C.3     1  UNL1        0.1087
     24 N         141.7919  145.2535  160.4100 N.3     1  UNL1       -0.1780
     25 H         141.7095  146.2483  160.2000 H       1  UNL1        0.1488
     26 S         140.7959  144.9552  161.4911 S.O2    1  UNL1        0.0603
     27 O         139.6756  145.1525  160.5135 O.2     1  UNL1       -0.1530
     28 O         141.9163  144.7578  162.4687 O.2     1  UNL1       -0.1530
     29 C         139.7999  144.6568  162.5724 C.ar    1  UNL1        0.1219
     30 C         140.0496  145.1304  163.9735 C.ar    1  UNL1        0.0199
     31 C         139.0537  144.8320  165.0548 C.ar    1  UNL1        0.0014
     32 C         137.8081  144.0601  164.7348 C.ar    1  UNL1        0.0001
     33 C         137.5584  143.5864  163.3336 C.ar    1  UNL1        0.0014
     34 C         138.5543  143.8848  162.2524 C.ar    1  UNL1        0.0199
@<TRIPOS>BOND
     1    20    21    3
     2    21    13    1
     3    13    14   ar
     4    14    15   ar
     5    15    16   ar
     6    16    12    1
     7    12    11    1
     8    11    10    1
     9    10     1    1
    10     1     2    1
    11     2     3    1
    12     3     4    1
    13     4     5    1
    14     5    22    1
    15    22    23    1
    16    23    24    1
    17    24    26    1
    18    26    27    2
    19    26    28    2
    20    26    29    1
    21    29    30   ar
    22    30    31   ar
    23    31    32   ar
    24    32    33   ar
    25    33    34   ar
    26     5     6    1
    27     6     7    1
    28     7     8    1
    29     7     9    1
    30    16    17   ar
    31    17    18    1
    32    17    19   ar
    33    19    13   ar
    34     8     1    1
    35     9     3    1
    36    34    29   ar
    37    24    25    1
@<TRIPOS>MOLECULE
*****
 34 37 0 0 0
SMALL
GASTEIGER

@<TRIPOS>ATOM
      1 N         138.4814  140.4060  165.3593 N.3     1  UNL1       -0.2653
      2 C         139.5815  141.2848  165.8763 C.3     1  UNL1        0.1036
      3 C         139.9647  142.5261  165.1266 C.3     1  UNL1        0.1470
      4 C         140.3480  143.7676  164.3769 C.3     1  UNL1        0.1035
      5 N         139.6310  144.1302  163.1103 N.3     1  UNL1       -0.2673
      6 C         138.5308  143.2513  162.5933 C.3     1  UNL1        0.1035
      7 C         138.1476  142.0099  163.3430 C.3     1  UNL1        0.1470
      8 C         137.7644  140.7685  164.0926 C.3     1  UNL1        0.1036
      9 O         139.2478  142.8887  163.8600 O.3     1  UNL1       -0.3530
     10 C         138.0981  139.1645  166.1090 C.3     1  UNL1        0.1202
     11 C         138.6961  137.8430  165.7270 C.3     1  UNL1        0.2228
     12 O         138.4628  137.2827  164.3552 O.3     1  UNL1       -0.4717
     13 C         141.3831  138.1511  161.0435 C.ar    1  UNL1        0.0709
     14 C         141.8811  137.6857  162.3797 C.ar    1  UNL1        0.0135
     15 C         140.9077  137.3962  163.4836 C.ar    1  UNL1        0.0399
     16 C         139.4362  137.5721  163.2513 C.ar    1  UNL1        0.1659
     17 C         138.9382  138.0376  161.9152 C.ar    1  UNL1        0.1745
     18 F         137.4668  138.2135  161.6830 F       1  UNL1       -0.2009
     19 C         139.9116  138.3271  160.8112 C.ar    1  UNL1        0.0430
     20 N         143.3299  138.7301  158.8357 N.1     1  UNL1       -0.1908
     21 C         142.3565  138.4406  159.9396 C.1     1  UNL1        0.1005
     22 C         140.0142  145.3716  162.3606 C.3     1  UNL1        0.0913
     23 C         140.6699  145.2633  161.0158 C.3     1  UNL1        0.1087
     24 N         142.1635  145.1692  160.9150 N.3     1  UNL1       -0.1780
     25 H         142.5396  146.0376  161.2956 H       1  UNL1        0.1488
     26 S         142.8918  144.0475  161.5942 S.O2    1  UNL1        0.0603
     27 O         143.5075  145.0260  162.5499 O.2     1  UNL1       -0.1530
     28 O         142.2761  143.0690  160.6384 O.2     1  UNL1       -0.1530
     29 C         143.6201  142.9257  162.2734 C.ar    1  UNL1        0.1219
     30 C         144.4259  143.1945  163.5097 C.ar    1  UNL1        0.0199
     31 C         145.1542  142.0728  164.1889 C.ar    1  UNL1        0.0014
     32 C         145.0767  140.6823  163.6318 C.ar    1  UNL1        0.0001
     33 C         144.2709  140.4135  162.3954 C.ar    1  UNL1        0.0014
     34 C         143.5426  141.5352  161.7163 C.ar    1  UNL1        0.0199
@<TRIPOS>BOND
     1    20    21    3
     2    21    13    1
     3    13    14   ar
     4    14    15   ar
     5    15    16   ar
     6    16    12    1
     7    12    11    1
     8    11    10    1
     9    10     1    1
    10     1     2    1
    11     2     3    1
    12     3     4    1
    13     4     5    1
    14     5    22    1
    15    22    23    1
    16    23    24    1
    17    24    26    1
    18    26    27    2
    19    26    28    2
    20    26    29    1
    21    29    30   ar
    22    30    31   ar
    23    31    32   ar
    24    32    33   ar
    25    33    34   ar
    26     5     6    1
    27     6     7    1
    28     7     8    1
    29     7     9    1
    30    16    17   ar
    31    17    18    1
    32    17    19   ar
    33    19    13   ar
    34     8     1    1
    35     9     3    1
    36    34    29   ar
    37    24    25    1
@<TRIPOS>MOLECULE
*****
 34 37 0 0 0
SMALL
GASTEIGER

@<TRIPOS>ATOM
      1 N         141.6221  144.0834  161.7402 N.3     1  UNL1       -0.2653
      2 C         142.5643  144.3997  162.8637 C.3     1  UNL1        0.1036
      3 C         143.3723  143.3053  163.4955 C.3     1  UNL1        0.1470
      4 C         144.1804  142.2108  164.1273 C.3     1  UNL1        0.1035
      5 N         144.0462  140.8000  163.6357 N.3     1  UNL1       -0.2673
      6 C         143.1039  140.4837  162.5122 C.3     1  UNL1        0.1035
      7 C         142.2959  141.5782  161.8804 C.3     1  UNL1        0.1470
      8 C         141.4879  142.6726  161.2486 C.3     1  UNL1        0.1036
      9 O         143.2381  141.8945  163.0039 O.3     1  UNL1       -0.3530
     10 C         140.8140  145.1779  161.1084 C.3     1  UNL1        0.1202
     11 C         139.7773  145.9047  161.9126 C.3     1  UNL1        0.2228
     12 O         138.4473  145.2631  162.1768 O.3     1  UNL1       -0.4717
     13 C         138.2286  141.4054  164.4833 C.ar    1  UNL1        0.0709
     14 C         137.7637  141.4545  163.0579 C.ar    1  UNL1        0.0135
     15 C         137.8366  142.7404  162.2891 C.ar    1  UNL1        0.0399
     16 C         138.3744  143.9773  162.9456 C.ar    1  UNL1        0.1659
     17 C         138.8392  143.9282  164.3709 C.ar    1  UNL1        0.1745
     18 F         139.3770  145.1651  165.0273 F       1  UNL1       -0.2009
     19 C         138.7663  142.6423  165.1397 C.ar    1  UNL1        0.0430
     20 N         138.0827  138.8336  166.0209 N.1     1  UNL1       -0.1908
     21 C         138.1557  140.1195  165.2521 C.1     1  UNL1        0.1005
     22 C         144.8541  139.7055  164.2675 C.3     1  UNL1        0.0913
     23 C         144.2607  138.8733  165.3654 C.3     1  UNL1        0.1087
     24 N         142.7979  138.9793  165.6799 N.3     1  UNL1       -0.1780
     25 H         142.4589  138.0288  165.8280 H       1  UNL1        0.1488
     26 S         142.3405  139.7903  166.8558 S.O2    1  UNL1        0.0603
     27 O         141.5427  140.6696  165.9391 O.2     1  UNL1       -0.1530
     28 O         143.1383  138.9111  167.7725 O.2     1  UNL1       -0.1530
     29 C         141.8830  140.6014  168.0319 C.ar    1  UNL1        0.1219
     30 C         141.3266  141.9785  167.8224 C.ar    1  UNL1        0.0199
     31 C         140.8691  142.7895  168.9983 C.ar    1  UNL1        0.0014
     32 C         140.9682  142.2234  170.3838 C.ar    1  UNL1        0.0001
     33 C         141.5246  140.8463  170.5934 C.ar    1  UNL1        0.0014
     34 C         141.9821  140.0353  169.4174 C.ar    1  UNL1        0.0199
@<TRIPOS>BOND
     1    20    21    3
     2    21    13    1
     3    13    14   ar
     4    14    15   ar
     5    15    16   ar
     6    16    12    1
     7    12    11    1
     8    11    10    1
     9    10     1    1
    10     1     2    1
    11     2     3    1
    12     3     4    1
    13     4     5    1
    14     5    22    1
    15    22    23    1
    16    23    24    1
    17    24    26    1
    18    26    27    2
    19    26    28    2
    20    26    29    1
    21    29    30   ar
    22    30    31   ar
    23    31    32   ar
    24    32    33   ar
    25    33    34   ar
    26     5     6    1
    27     6     7    1
    28     7     8    1
    29     7     9    1
    30    16    17   ar
    31    17    18    1
    32    17    19   ar
    33    19    13   ar
    34     8     1    1
    35     9     3    1
    36    34    29   ar
    37    24    25    1
@<TRIPOS>MOLECULE
*****
 34 37 0 0 0
SMALL
GASTEIGER

@<TRIPOS>ATOM
      1 N         142.9304  143.5098  163.2664 N.3     1  UNL1       -0.2653
      2 C         143.5208  142.7965  162.0864 C.3     1  UNL1        0.1036
      3 C         142.6245  142.2499  161.0150 C.3     1  UNL1        0.1470
      4 C         141.7282  141.7034  159.9435 C.3     1  UNL1        0.1035
      5 N         140.2415  141.8702  160.0521 N.3     1  UNL1       -0.2673
      6 C         139.6511  142.5836  161.2322 C.3     1  UNL1        0.1035
      7 C         140.5474  143.1302  162.3036 C.3     1  UNL1        0.1470
      8 C         141.4437  143.6767  163.3750 C.3     1  UNL1        0.1036
      9 O         141.1378  142.4168  161.1236 O.3     1  UNL1       -0.3530
     10 C         143.8267  144.0564  164.3378 C.3     1  UNL1        0.1202
     11 C         144.2295  143.1890  165.4934 C.3     1  UNL1        0.2228
     12 O         143.7384  141.7740  165.5760 O.3     1  UNL1       -0.4717
     13 C         140.4244  140.7053  168.4265 C.ar    1  UNL1        0.0709
     14 C         140.4909  142.0827  167.8361 C.ar    1  UNL1        0.0135
     15 C         141.5955  142.4389  166.8859 C.ar    1  UNL1        0.0399
     16 C         142.6337  141.4178  166.5261 C.ar    1  UNL1        0.1659
     17 C         142.5673  140.0405  167.1165 C.ar    1  UNL1        0.1745
     18 F         143.6055  139.0194  166.7567 F       1  UNL1       -0.2009
     19 C         141.4626  139.6842  168.0667 C.ar    1  UNL1        0.0430
     20 N         138.2151  139.9929  170.3267 N.1     1  UNL1       -0.1908
     21 C         139.3197  140.3491  169.3766 C.1     1  UNL1        0.1005
     22 C         139.3452  141.3237  158.9807 C.3     1  UNL1        0.0913
     23 C         138.4107  140.1918  159.2898 C.3     1  UNL1        0.1087
     24 N         138.9101  138.9887  160.0336 N.3     1  UNL1       -0.1780
     25 H         139.9006  138.8940  159.8092 H       1  UNL1        0.1488
     26 S         138.7972  138.9308  161.5282 S.O2    1  UNL1        0.0603
     27 O         140.0894  138.1721  161.5963 O.2     1  UNL1       -0.1530
     28 O         137.5051  139.6895  161.4600 O.2     1  UNL1       -0.1530
     29 C         138.6843  138.8730  163.0229 C.ar    1  UNL1        0.1219
     30 C         138.9506  137.5859  163.7458 C.ar    1  UNL1        0.0199
     31 C         138.8378  137.5280  165.2404 C.ar    1  UNL1        0.0014
     32 C         138.4586  138.7571  166.0120 C.ar    1  UNL1        0.0001
     33 C         138.1923  140.0442  165.2891 C.ar    1  UNL1        0.0014
     34 C         138.3052  140.1021  163.7945 C.ar    1  UNL1        0.0199
@<TRIPOS>BOND
     1    20    21    3
     2    21    13    1
     3    13    14   ar
     4    14    15   ar
     5    15    16   ar
     6    16    12    1
     7    12    11    1
     8    11    10    1
     9    10     1    1
    10     1     2    1
    11     2     3    1
    12     3     4    1
    13     4     5    1
    14     5    22    1
    15    22    23    1
    16    23    24    1
    17    24    26    1
    18    26    27    2
    19    26    28    2
    20    26    29    1
    21    29    30   ar
    22    30    31   ar
    23    31    32   ar
    24    32    33   ar
    25    33    34   ar
    26     5     6    1
    27     6     7    1
    28     7     8    1
    29     7     9    1
    30    16    17   ar
    31    17    18    1
    32    17    19   ar
    33    19    13   ar
    34     8     1    1
    35     9     3    1
    36    34    29   ar
    37    24    25    1
@<TRIPOS>MOLECULE
*****
 34 37 0 0 0
SMALL
GASTEIGER

@<TRIPOS>ATOM
      1 N         139.2708  139.1277  162.8172 N.3     1  UNL1       -0.2653
      2 C         140.4652  139.2714  161.9212 C.3     1  UNL1        0.1036
      3 C         140.6453  140.5173  161.1056 C.3     1  UNL1        0.1470
      4 C         140.8254  141.7632  160.2898 C.3     1  UNL1        0.1035
      5 N         139.8111  142.8653  160.3701 N.3     1  UNL1       -0.2673
      6 C         138.6167  142.7216  161.2661 C.3     1  UNL1        0.1035
      7 C         138.4366  141.4757  162.0818 C.3     1  UNL1        0.1470
      8 C         138.2565  140.2299  162.8974 C.3     1  UNL1        0.1036
      9 O         139.6310  141.6194  161.1858 O.3     1  UNL1       -0.3530
     10 C         139.0907  137.8818  163.6329 C.3     1  UNL1        0.1202
     11 C         139.9840  137.6197  164.8090 C.3     1  UNL1        0.2228
     12 O         141.0367  138.6186  165.1886 O.3     1  UNL1       -0.4717
     13 C         140.9071  140.5993  169.2272 C.ar    1  UNL1        0.0709
     14 C         142.1944  140.0246  168.7146 C.ar    1  UNL1        0.0135
     15 C         142.2376  139.3644  167.3684 C.ar    1  UNL1        0.0399
     16 C         140.9935  139.2788  166.5348 C.ar    1  UNL1        0.1659
     17 C         139.7063  139.8534  167.0473 C.ar    1  UNL1        0.1745
     18 F         138.4622  139.7678  166.2136 F       1  UNL1       -0.2009
     19 C         139.6630  140.5136  168.3935 C.ar    1  UNL1        0.0430
     20 N         140.8207  141.9197  171.9195 N.1     1  UNL1       -0.1908
     21 C         140.8639  141.2595  170.5733 C.1     1  UNL1        0.1005
     22 C         139.9912  144.1112  159.5544 C.3     1  UNL1        0.0913
     23 C         140.9480  145.1734  160.0088 C.3     1  UNL1        0.1087
     24 N         140.8699  145.7035  161.4098 N.3     1  UNL1       -0.1780
     25 H         139.8794  145.7990  161.6337 H       1  UNL1        0.1488
     26 S         141.4970  144.9382  162.5372 S.O2    1  UNL1        0.0603
     27 O         140.2632  145.1461  163.3645 O.2     1  UNL1       -0.1530
     28 O         142.7308  144.7304  161.7099 O.2     1  UNL1       -0.1530
     29 C         142.1241  144.1729  163.6647 C.ar    1  UNL1        0.1219
     30 C         143.6153  144.1636  163.8267 C.ar    1  UNL1        0.0199
     31 C         144.2424  143.3983  164.9541 C.ar    1  UNL1        0.0014
     32 C         143.3784  142.6424  165.9194 C.ar    1  UNL1        0.0001
     33 C         141.8872  142.6517  165.7574 C.ar    1  UNL1        0.0014
     34 C         141.2601  143.4170  164.6300 C.ar    1  UNL1        0.0199
@<TRIPOS>BOND
     1    20    21    3
     2    21    13    1
     3    13    14   ar
     4    14    15   ar
     5    15    16   ar
     6    16    12    1
     7    12    11    1
     8    11    10    1
     9    10     1    1
    10     1     2    1
    11     2     3    1
    12     3     4    1
    13     4     5    1
    14     5    22    1
    15    22    23    1
    16    23    24    1
    17    24    26    1
    18    26    27    2
    19    26    28    2
    20    26    29    1
    21    29    30   ar
    22    30    31   ar
    23    31    32   ar
    24    32    33   ar
    25    33    34   ar
    26     5     6    1
    27     6     7    1
    28     7     8    1
    29     7     9    1
    30    16    17   ar
    31    17    18    1
    32    17    19   ar
    33    19    13   ar
    34     8     1    1
    35     9     3    1
    36    34    29   ar
    37    24    25    1
@<TRIPOS>MOLECULE
*****
 34 37 0 0 0
SMALL
GASTEIGER

@<TRIPOS>ATOM
      1 N         141.2144  145.1807  162.1410 N.3     1  UNL1       -0.2653
      2 C         141.8946  145.3452  163.4677 C.3     1  UNL1        0.1036
      3 C         143.0138  144.4250  163.8559 C.3     1  UNL1        0.1470
      4 C         144.1330  143.5048  164.2442 C.3     1  UNL1        0.1035
      5 N         144.5720  142.4202  163.3056 N.3     1  UNL1       -0.2673
      6 C         143.8918  142.2558  161.9788 C.3     1  UNL1        0.1035
      7 C         142.7726  143.1759  161.5907 C.3     1  UNL1        0.1470
      8 C         141.6534  144.0961  161.2025 C.3     1  UNL1        0.1036
      9 O         143.4528  143.3404  162.9174 O.3     1  UNL1       -0.3530
     10 C         140.0952  146.1009  161.7527 C.3     1  UNL1        0.1202
     11 C         138.6881  145.7866  162.1664 C.3     1  UNL1        0.2228
     12 O         138.2402  144.3593  162.2779 O.3     1  UNL1       -0.4717
     13 C         139.7590  141.7803  165.6383 C.ar    1  UNL1        0.0709
     14 C         139.4217  143.2199  165.8912 C.ar    1  UNL1        0.0135
     15 C         138.9154  144.0795  164.7711 C.ar    1  UNL1        0.0399
     16 C         138.7464  143.4997  163.3980 C.ar    1  UNL1        0.1659
     17 C         139.0838  142.0602  163.1451 C.ar    1  UNL1        0.1745
     18 F         138.9148  141.4803  161.7720 F       1  UNL1       -0.2009
     19 C         139.5901  141.2005  164.2652 C.ar    1  UNL1        0.0430
     20 N         140.7716  140.0611  167.8785 N.1     1  UNL1       -0.1908
     21 C         140.2653  140.9207  166.7584 C.1     1  UNL1        0.1005
     22 C         145.6912  141.5000  163.6938 C.3     1  UNL1        0.0913
     23 C         145.3872  140.1195  164.1956 C.3     1  UNL1        0.1087
     24 N         144.8296  139.0875  163.2607 N.3     1  UNL1       -0.1780
     25 H         145.3618  138.2313  163.4159 H       1  UNL1        0.1488
     26 S         143.3786  138.7148  163.3344 S.O2    1  UNL1        0.0603
     27 O         143.3435  138.5565  161.8432 O.2     1  UNL1       -0.1530
     28 O         143.4136  138.8730  164.8255 O.2     1  UNL1       -0.1530
     29 C         141.9275  138.3420  163.4081 C.ar    1  UNL1        0.1219
     30 C         141.0805  138.3764  162.1705 C.ar    1  UNL1        0.0199
     31 C         139.6295  138.0036  162.2442 C.ar    1  UNL1        0.0014
     32 C         139.0253  137.5966  163.5554 C.ar    1  UNL1        0.0001
     33 C         139.8723  137.5623  164.7929 C.ar    1  UNL1        0.0014
     34 C         141.3233  137.9350  164.7193 C.ar    1  UNL1        0.0199
@<TRIPOS>BOND
     1    20    21    3
     2    21    13    1
     3    13    14   ar
     4    14    15   ar
     5    15    16   ar
     6    16    12    1
     7    12    11    1
     8    11    10    1
     9    10     1    1
    10     1     2    1
    11     2     3    1
    12     3     4    1
    13     4     5    1
    14     5    22    1
    15    22    23    1
    16    23    24    1
    17    24    26    1
    18    26    27    2
    19    26    28    2
    20    26    29    1
    21    29    30   ar
    22    30    31   ar
    23    31    32   ar
    24    32    33   ar
    25    33    34   ar
    26     5     6    1
    27     6     7    1
    28     7     8    1
    29     7     9    1
    30    16    17   ar
    31    17    18    1
    32    17    19   ar
    33    19    13   ar
    34     8     1    1
    35     9     3    1
    36    34    29   ar
    37    24    25    1
@<TRIPOS>MOLECULE
*****
 34 37 0 0 0
SMALL
GASTEIGER

@<TRIPOS>ATOM
      1 N         139.7194  139.0766  161.9598 N.3     1  UNL1       -0.2653
      2 C         138.5148  139.9602  161.8249 C.3     1  UNL1        0.1036
      3 C         138.5925  141.2140  161.0053 C.3     1  UNL1        0.1470
      4 C         138.6701  142.4679  160.1857 C.3     1  UNL1        0.1035
      5 N         139.9524  142.8382  159.5010 N.3     1  UNL1       -0.2673
      6 C         141.1570  141.9545  159.6360 C.3     1  UNL1        0.1035
      7 C         141.0793  140.7007  160.4556 C.3     1  UNL1        0.1470
      8 C         141.0016  139.4469  161.2752 C.3     1  UNL1        0.1036
      9 O         139.8747  141.5843  160.3206 O.3     1  UNL1       -0.3530
     10 C         139.6417  137.8227  162.7795 C.3     1  UNL1        0.1202
     11 C         140.2802  137.7725  164.1359 C.3     1  UNL1        0.2228
     12 O         141.0826  138.9393  164.6307 O.3     1  UNL1       -0.4717
     13 C         140.8126  140.1877  168.9456 C.ar    1  UNL1        0.0709
     14 C         142.1298  139.7592  168.3698 C.ar    1  UNL1        0.0135
     15 C         142.2198  139.3430  166.9315 C.ar    1  UNL1        0.0399
     16 C         140.9926  139.3555  166.0690 C.ar    1  UNL1        0.1659
     17 C         139.6755  139.7840  166.6447 C.ar    1  UNL1        0.1745
     18 F         138.4484  139.7964  165.7821 F       1  UNL1       -0.2009
     19 C         139.5855  140.2001  168.0831 C.ar    1  UNL1        0.0430
     20 N         140.6326  141.0199  171.8222 N.1     1  UNL1       -0.1908
     21 C         140.7226  140.6038  170.3839 C.1     1  UNL1        0.1005
     22 C         140.0300  144.0920  158.6814 C.3     1  UNL1        0.0913
     23 C         140.2772  145.4115  159.3507 C.3     1  UNL1        0.1087
     24 N         141.2680  145.5094  160.4726 N.3     1  UNL1       -0.1780
     25 H         141.4976  146.4977  160.5772 H       1  UNL1        0.1488
     26 S         140.9081  145.0017  161.8374 S.O2    1  UNL1        0.0603
     27 O         142.2762  144.4025  161.9753 O.2     1  UNL1       -0.1530
     28 O         139.5399  145.6010  161.6996 O.2     1  UNL1       -0.1530
     29 C         140.5482  144.4940  163.2023 C.ar    1  UNL1        0.1219
     30 C         139.2800  144.9493  163.8615 C.ar    1  UNL1        0.0199
     31 C         138.9201  144.4417  165.2262 C.ar    1  UNL1        0.0014
     32 C         139.8282  143.4787  165.9318 C.ar    1  UNL1        0.0001
     33 C         141.0963  143.0233  165.2726 C.ar    1  UNL1        0.0014
     34 C         141.4563  143.5310  163.9078 C.ar    1  UNL1        0.0199
@<TRIPOS>BOND
     1    20    21    3
     2    21    13    1
     3    13    14   ar
     4    14    15   ar
     5    15    16   ar
     6    16    12    1
     7    12    11    1
     8    11    10    1
     9    10     1    1
    10     1     2    1
    11     2     3    1
    12     3     4    1
    13     4     5    1
    14     5    22    1
    15    22    23    1
    16    23    24    1
    17    24    26    1
    18    26    27    2
    19    26    28    2
    20    26    29    1
    21    29    30   ar
    22    30    31   ar
    23    31    32   ar
    24    32    33   ar
    25    33    34   ar
    26     5     6    1
    27     6     7    1
    28     7     8    1
    29     7     9    1
    30    16    17   ar
    31    17    18    1
    32    17    19   ar
    33    19    13   ar
    34     8     1    1
    35     9     3    1
    36    34    29   ar
    37    24    25    1
@<TRIPOS>MOLECULE
*****
 34 37 0 0 0
SMALL
GASTEIGER

@<TRIPOS>ATOM
      1 N         139.4621  137.8041  164.5224 N.3     1  UNL1       -0.2653
      2 C         140.9484  137.7602  164.7194 C.3     1  UNL1        0.1036
      3 C         141.8659  137.9215  163.5438 C.3     1  UNL1        0.1470
      4 C         142.7834  138.0828  162.3681 C.3     1  UNL1        0.1035
      5 N         142.2146  138.2880  160.9954 N.3     1  UNL1       -0.2673
      6 C         140.7282  138.3319  160.7984 C.3     1  UNL1        0.1035
      7 C         139.8107  138.1706  161.9740 C.3     1  UNL1        0.1470
      8 C         138.8932  138.0093  163.1497 C.3     1  UNL1        0.1036
      9 O         141.2970  138.1267  162.1711 O.3     1  UNL1       -0.3530
     10 C         138.5445  137.6428  165.6981 C.3     1  UNL1        0.1202
     11 C         138.1667  138.8366  166.5238 C.3     1  UNL1        0.2228
     12 O         139.1458  139.9569  166.7147 O.3     1  UNL1       -0.4717
     13 C         139.1964  143.4159  163.8367 C.ar    1  UNL1        0.0709
     14 C         138.1000  142.3948  163.7630 C.ar    1  UNL1        0.0135
     15 C         138.0831  141.2419  164.7223 C.ar    1  UNL1        0.0399
     16 C         139.1626  141.1099  165.7554 C.ar    1  UNL1        0.1659
     17 C         140.2590  142.1309  165.8291 C.ar    1  UNL1        0.1745
     18 F         141.3385  141.9989  166.8622 F       1  UNL1       -0.2009
     19 C         140.2759  143.2839  164.8698 C.ar    1  UNL1        0.0430
     20 N         139.2301  145.7218  161.9181 N.1     1  UNL1       -0.1908
     21 C         139.2133  144.5689  162.8774 C.1     1  UNL1        0.1005
     22 C         143.1321  138.4493  159.8197 C.3     1  UNL1        0.0913
     23 C         143.6302  139.8119  159.4385 C.3     1  UNL1        0.1087
     24 N         142.7925  141.0233  159.7225 N.3     1  UNL1       -0.1780
     25 H         141.8272  140.7025  159.7985 H       1  UNL1        0.1488
     26 S         143.0684  141.8577  160.9380 S.O2    1  UNL1        0.0603
     27 O         141.6805  142.4219  160.8657 O.2     1  UNL1       -0.1530
     28 O         144.4564  141.2935  161.0102 O.2     1  UNL1       -0.1530
     29 C         143.3444  142.6922  162.1536 C.ar    1  UNL1        0.1219
     30 C         144.0254  142.0826  163.3430 C.ar    1  UNL1        0.0199
     31 C         144.3014  142.9170  164.5585 C.ar    1  UNL1        0.0014
     32 C         143.8964  144.3610  164.5846 C.ar    1  UNL1        0.0001
     33 C         143.2155  144.9706  163.3952 C.ar    1  UNL1        0.0014
     34 C         142.9395  144.1362  162.1797 C.ar    1  UNL1        0.0199
@<TRIPOS>BOND
     1    20    21    3
     2    21    13    1
     3    13    14   ar
     4    14    15   ar
     5    15    16   ar
     6    16    12    1
     7    12    11    1
     8    11    10    1
     9    10     1    1
    10     1     2    1
    11     2     3    1
    12     3     4    1
    13     4     5    1
    14     5    22    1
    15    22    23    1
    16    23    24    1
    17    24    26    1
    18    26    27    2
    19    26    28    2
    20    26    29    1
    21    29    30   ar
    22    30    31   ar
    23    31    32   ar
    24    32    33   ar
    25    33    34   ar
    26     5     6    1
    27     6     7    1
    28     7     8    1
    29     7     9    1
    30    16    17   ar
    31    17    18    1
    32    17    19   ar
    33    19    13   ar
    34     8     1    1
    35     9     3    1
    36    34    29   ar
    37    24    25    1
