@<TRIPOS>MOLECULE
*****
 33 36 0 0 0
SMALL
GASTEIGER

@<TRIPOS>ATOM
      1 C         139.5010  138.8954  163.0633 C.ar    1  UNL1        0.0505
      2 C         139.4578  137.7738  164.0584 C.ar    1  UNL1        0.0148
      3 C         139.3190  138.0743  165.5214 C.ar    1  UNL1        0.0060
      4 C         139.2234  139.4962  165.9893 C.ar    1  UNL1        0.0553
      5 C         139.2666  140.6177  164.9942 C.ar    1  UNL1        0.0060
      6 C         139.4054  140.3173  163.5312 C.ar    1  UNL1        0.0148
      7 C         139.0845  139.7966  167.4524 C.ar    1  UNL1        0.2512
      8 N         138.1136  139.1518  168.3966 N.ar    1  UNL1       -0.1058
      9 N         138.3212  139.7511  169.7559 N.ar    1  UNL1       -0.0923
     10 C         139.4205  140.7664  169.6517 C.ar    1  UNL1        0.3086
     11 O         139.8922  140.7945  168.2281 O.2     1  UNL1       -0.4048
     12 N         139.9543  141.6062  170.7742 N.pl3   1  UNL1       -0.2871
     13 H         139.3328  142.0737  171.3778 H       1  UNL1        0.1512
     14 C         141.4351  141.7336  170.9769 C.3     1  UNL1        0.0912
     15 C         142.2254  142.7004  170.1458 C.3     1  UNL1        0.0227
     16 C         143.2152  142.1907  169.1406 C.3     1  UNL1        0.0191
     17 C         142.8775  142.2095  167.6793 C.3     1  UNL1        0.0721
     18 N         142.9171  140.9384  166.8838 N.3     1  UNL1       -0.2727
     19 C         142.8608  139.5471  167.4415 C.3     1  UNL1        0.0721
     20 C         142.9288  138.5843  166.2932 C.3     1  UNL1        0.0188
     21 C         143.0271  139.3807  165.0258 C.3     1  UNL1        0.0188
     22 C         143.0199  140.8355  165.3908 C.3     1  UNL1        0.0721
     23 O         142.1367  139.3073  161.6908 O.2     1  UNL1       -0.2697
     24 C         140.9577  138.8010  160.9140 C.2     1  UNL1        0.2517
     25 N         139.6398  138.5950  161.6002 N.am    1  UNL1       -0.2803
     26 H         138.8660  138.2626  161.0903 H       1  UNL1        0.1552
     27 C         141.0965  138.5006  159.4509 C.ar    1  UNL1        0.0811
     28 C         142.3913  137.9662  158.9146 C.ar    1  UNL1        0.0068
     29 C         142.5301  137.6658  157.4516 C.ar    1  UNL1        0.0003
     30 C         141.3741  137.8999  156.5249 C.ar    1  UNL1        0.0023
     31 C         140.0792  138.4343  157.0612 C.ar    1  UNL1        0.0298
     32 C         139.9404  138.7346  158.5242 C.ar    1  UNL1        0.1445
     33 F         138.6455  139.2691  159.0607 F       1  UNL1       -0.2040
@<TRIPOS>BOND
     1    23    24    2
     2    24    25   am
     3    25     1    1
     4     1     2   ar
     5     2     3   ar
     6     3     4   ar
     7     4     7    1
     8     7     8   ar
     9     8     9   ar
    10     9    10   ar
    11    10    12    1
    12    12    14    1
    13    14    15    1
    14    15    16    1
    15    16    17    1
    16    17    18    1
    17    18    19    1
    18    19    20    1
    19    20    21    1
    20    21    22    1
    21    10    11   ar
    22     4     5   ar
    23     5     6   ar
    24    24    27    1
    25    27    28   ar
    26    28    29   ar
    27    29    30   ar
    28    30    31   ar
    29    31    32   ar
    30    32    33    1
    31     6     1   ar
    32    32    27   ar
    33    11     7   ar
    34    22    18    1
    35    25    26    1
    36    12    13    1
@<TRIPOS>MOLECULE
*****
 33 36 0 0 0
SMALL
GASTEIGER

@<TRIPOS>ATOM
      1 C         142.5546  138.0272  158.1801 C.ar    1  UNL1        0.0505
      2 C         142.5540  139.4567  157.7256 C.ar    1  UNL1        0.0148
      3 C         143.0148  140.5396  158.6557 C.ar    1  UNL1        0.0060
      4 C         143.4760  140.1930  160.0403 C.ar    1  UNL1        0.0553
      5 C         143.4766  138.7636  160.4948 C.ar    1  UNL1        0.0060
      6 C         143.0159  137.6807  159.5647 C.ar    1  UNL1        0.0148
      7 C         143.9368  141.2760  160.9703 C.ar    1  UNL1        0.2512
      8 N         145.0192  141.1513  162.0013 N.ar    1  UNL1       -0.1058
      9 N         145.1475  142.4719  162.7009 N.ar    1  UNL1       -0.0923
     10 C         144.1442  143.4129  162.1022 C.ar    1  UNL1        0.3086
     11 O         143.3961  142.6737  161.0327 O.2     1  UNL1       -0.4048
     12 N         143.9273  144.8420  162.5028 N.pl3   1  UNL1       -0.2871
     13 H         144.2605  145.5699  161.9297 H       1  UNL1        0.1512
     14 C         143.2029  145.1622  163.7766 C.3     1  UNL1        0.0912
     15 C         141.7098  145.3063  163.7744 C.3     1  UNL1        0.0227
     16 C         140.9687  145.4148  162.4749 C.3     1  UNL1        0.0191
     17 C         139.4689  145.3990  162.4632 C.3     1  UNL1        0.0721
     18 N         138.7272  144.2062  162.9897 N.3     1  UNL1       -0.2727
     19 C         138.0960  143.1251  162.1634 C.3     1  UNL1        0.0721
     20 C         137.4652  142.1359  163.0981 C.3     1  UNL1        0.0188
     21 C         137.7065  142.6057  164.5021 C.3     1  UNL1        0.0188
     22 C         138.4864  143.8852  164.4351 C.3     1  UNL1        0.0721
     23 O         144.3827  137.0240  156.0234 O.2     1  UNL1       -0.2697
     24 C         143.0079  136.4427  156.1717 C.2     1  UNL1        0.2517
     25 N         142.0938  136.9443  157.2501 N.am    1  UNL1       -0.2803
     26 H         141.1915  136.5627  157.3474 H       1  UNL1        0.1552
     27 C         142.5471  135.3597  155.2416 C.ar    1  UNL1        0.0811
     28 C         142.2630  135.6769  153.8034 C.ar    1  UNL1        0.0068
     29 C         141.8023  134.5940  152.8734 C.ar    1  UNL1        0.0003
     30 C         141.6257  133.1938  153.3817 C.ar    1  UNL1        0.0023
     31 C         141.9098  132.8766  154.8199 C.ar    1  UNL1        0.0298
     32 C         142.3705  133.9595  155.7499 C.ar    1  UNL1        0.1445
     33 F         142.6546  133.6423  157.1882 F       1  UNL1       -0.2040
@<TRIPOS>BOND
     1    23    24    2
     2    24    25   am
     3    25     1    1
     4     1     2   ar
     5     2     3   ar
     6     3     4   ar
     7     4     7    1
     8     7     8   ar
     9     8     9   ar
    10     9    10   ar
    11    10    12    1
    12    12    14    1
    13    14    15    1
    14    15    16    1
    15    16    17    1
    16    17    18    1
    17    18    19    1
    18    19    20    1
    19    20    21    1
    20    21    22    1
    21    10    11   ar
    22     4     5   ar
    23     5     6   ar
    24    24    27    1
    25    27    28   ar
    26    28    29   ar
    27    29    30   ar
    28    30    31   ar
    29    31    32   ar
    30    32    33    1
    31     6     1   ar
    32    32    27   ar
    33    11     7   ar
    34    22    18    1
    35    25    26    1
    36    12    13    1
@<TRIPOS>MOLECULE
*****
 33 36 0 0 0
SMALL
GASTEIGER

@<TRIPOS>ATOM
      1 C         140.2930  138.4812  161.8898 C.ar    1  UNL1        0.0505
      2 C         140.6739  137.4533  162.9137 C.ar    1  UNL1        0.0148
      3 C         140.1557  137.5647  164.3169 C.ar    1  UNL1        0.0060
      4 C         139.2567  138.7039  164.6962 C.ar    1  UNL1        0.0553
      5 C         138.8758  139.7318  163.6724 C.ar    1  UNL1        0.0060
      6 C         139.3940  139.6204  162.2692 C.ar    1  UNL1        0.0148
      7 C         138.7385  138.8152  166.0995 C.ar    1  UNL1        0.2512
      8 N         137.5476  138.0952  166.6594 N.ar    1  UNL1       -0.1058
      9 N         137.3933  138.5010  168.0952 N.ar    1  UNL1       -0.0923
     10 C         138.4889  139.4719  168.4227 C.ar    1  UNL1        0.3086
     11 O         139.3203  139.6660  167.1893 O.2     1  UNL1       -0.4048
     12 N         138.7137  140.1326  169.7505 N.pl3   1  UNL1       -0.2871
     13 H         137.9534  140.2950  170.3544 H       1  UNL1        0.1512
     14 C         140.0968  140.5457  170.1581 C.3     1  UNL1        0.0912
     15 C         141.1907  139.5229  170.2430 C.3     1  UNL1        0.0227
     16 C         142.4670  139.7246  169.4814 C.3     1  UNL1        0.0191
     17 C         142.5032  140.6664  168.3145 C.3     1  UNL1        0.0721
     18 N         142.7928  140.1448  166.9383 N.3     1  UNL1       -0.2727
     19 C         143.2183  138.7477  166.5962 C.3     1  UNL1        0.0721
     20 C         143.3962  138.6682  165.1089 C.3     1  UNL1        0.0188
     21 C         143.0807  140.0164  164.5317 C.3     1  UNL1        0.0188
     22 C         142.7078  140.9289  165.6622 C.3     1  UNL1        0.0721
     23 O         142.9703  139.6358  161.1833 O.2     1  UNL1       -0.2697
     24 C         142.1498  138.9472  160.1333 C.2     1  UNL1        0.2517
     25 N         140.8112  138.3699  160.4865 N.am    1  UNL1       -0.2803
     26 H         140.2726  137.9179  159.7973 H       1  UNL1        0.1552
     27 C         142.6679  138.8358  158.7300 C.ar    1  UNL1        0.0811
     28 C         142.5027  137.5539  157.9690 C.ar    1  UNL1        0.0068
     29 C         143.0209  137.4426  156.5657 C.ar    1  UNL1        0.0003
     30 C         143.7042  138.6133  155.9235 C.ar    1  UNL1        0.0023
     31 C         143.8694  139.8953  156.6845 C.ar    1  UNL1        0.0298
     32 C         143.3513  140.0065  158.0877 C.ar    1  UNL1        0.1445
     33 F         143.5165  141.2886  158.8488 F       1  UNL1       -0.2040
@<TRIPOS>BOND
     1    23    24    2
     2    24    25   am
     3    25     1    1
     4     1     2   ar
     5     2     3   ar
     6     3     4   ar
     7     4     7    1
     8     7     8   ar
     9     8     9   ar
    10     9    10   ar
    11    10    12    1
    12    12    14    1
    13    14    15    1
    14    15    16    1
    15    16    17    1
    16    17    18    1
    17    18    19    1
    18    19    20    1
    19    20    21    1
    20    21    22    1
    21    10    11   ar
    22     4     5   ar
    23     5     6   ar
    24    24    27    1
    25    27    28   ar
    26    28    29   ar
    27    29    30   ar
    28    30    31   ar
    29    31    32   ar
    30    32    33    1
    31     6     1   ar
    32    32    27   ar
    33    11     7   ar
    34    22    18    1
    35    25    26    1
    36    12    13    1
@<TRIPOS>MOLECULE
*****
 33 36 0 0 0
SMALL
GASTEIGER

@<TRIPOS>ATOM
      1 C         141.4836  138.4523  163.7039 C.ar    1  UNL1        0.0505
      2 C         140.3009  138.4466  162.7815 C.ar    1  UNL1        0.0148
      3 C         140.5081  138.4014  161.2966 C.ar    1  UNL1        0.0060
      4 C         141.8981  138.3619  160.7341 C.ar    1  UNL1        0.0553
      5 C         143.0809  138.3676  161.6566 C.ar    1  UNL1        0.0060
      6 C         142.8736  138.4128  163.1415 C.ar    1  UNL1        0.0148
      7 C         142.1053  138.3167  159.2491 C.ar    1  UNL1        0.2512
      8 N         143.4141  138.4855  158.5360 N.ar    1  UNL1       -0.1058
      9 N         143.1578  138.3679  157.0627 N.ar    1  UNL1       -0.0923
     10 C         141.6906  138.1263  156.8654 C.ar    1  UNL1        0.3086
     11 O         141.0401  138.0947  158.2166 O.2     1  UNL1       -0.4048
     12 N         140.9958  137.9478  155.5480 N.pl3   1  UNL1       -0.2871
     13 H         140.7093  138.7356  155.0318 H       1  UNL1        0.1512
     14 C         140.7375  136.5689  155.0171 C.3     1  UNL1        0.0912
     15 C         141.4150  135.3855  155.6421 C.3     1  UNL1        0.0227
     16 C         142.8589  135.1058  155.3471 C.3     1  UNL1        0.0191
     17 C         143.8057  134.7907  156.4669 C.3     1  UNL1        0.0721
     18 N         144.2322  133.3737  156.7123 N.3     1  UNL1       -0.2727
     19 C         144.1456  132.2439  155.7294 C.3     1  UNL1        0.0721
     20 C         144.6801  131.0097  156.3935 C.3     1  UNL1        0.0188
     21 C         145.0970  131.3766  157.7869 C.3     1  UNL1        0.0188
     22 C         144.8203  132.8376  157.9839 C.3     1  UNL1        0.0721
     23 O         141.0814  141.0860  165.0829 O.2     1  UNL1       -0.2697
     24 C         141.0754  139.8143  165.8784 C.2     1  UNL1        0.2517
     25 N         141.2765  138.4975  165.1889 N.am    1  UNL1       -0.2803
     26 H         141.2725  137.6628  165.7110 H       1  UNL1        0.1552
     27 C         140.8682  139.8595  167.3633 C.ar    1  UNL1        0.0811
     28 C         139.5429  140.2840  167.9231 C.ar    1  UNL1        0.0068
     29 C         139.3357  140.3292  169.4080 C.ar    1  UNL1        0.0003
     30 C         140.4539  139.9499  170.3332 C.ar    1  UNL1        0.0023
     31 C         141.7792  139.5255  169.7734 C.ar    1  UNL1        0.0298
     32 C         141.9863  139.4803  168.2885 C.ar    1  UNL1        0.1445
     33 F         143.3117  139.0558  167.7286 F       1  UNL1       -0.2040
@<TRIPOS>BOND
     1    23    24    2
     2    24    25   am
     3    25     1    1
     4     1     2   ar
     5     2     3   ar
     6     3     4   ar
     7     4     7    1
     8     7     8   ar
     9     8     9   ar
    10     9    10   ar
    11    10    12    1
    12    12    14    1
    13    14    15    1
    14    15    16    1
    15    16    17    1
    16    17    18    1
    17    18    19    1
    18    19    20    1
    19    20    21    1
    20    21    22    1
    21    10    11   ar
    22     4     5   ar
    23     5     6   ar
    24    24    27    1
    25    27    28   ar
    26    28    29   ar
    27    29    30   ar
    28    30    31   ar
    29    31    32   ar
    30    32    33    1
    31     6     1   ar
    32    32    27   ar
    33    11     7   ar
    34    22    18    1
    35    25    26    1
    36    12    13    1
@<TRIPOS>MOLECULE
*****
 33 36 0 0 0
SMALL
GASTEIGER

@<TRIPOS>ATOM
      1 C         143.0403  142.8167  158.5469 C.ar    1  UNL1        0.0505
      2 C         141.6297  142.7716  158.0390 C.ar    1  UNL1        0.0148
      3 C         140.4873  142.6720  159.0059 C.ar    1  UNL1        0.0060
      4 C         140.7556  142.6176  160.4807 C.ar    1  UNL1        0.0553
      5 C         142.1662  142.6627  160.9886 C.ar    1  UNL1        0.0060
      6 C         143.3086  142.7623  160.0217 C.ar    1  UNL1        0.0148
      7 C         139.6131  142.5180  161.4476 C.ar    1  UNL1        0.2512
      8 N         138.3166  143.2675  161.3608 N.ar    1  UNL1       -0.1058
      9 N         137.4688  142.8642  162.5306 N.ar    1  UNL1       -0.0923
     10 C         138.2412  141.8654  163.3404 C.ar    1  UNL1        0.3086
     11 O         139.5665  141.6515  162.6711 O.2     1  UNL1       -0.4048
     12 N         137.7710  141.1978  164.5987 N.pl3   1  UNL1       -0.2871
     13 H         136.8650  141.3748  164.9408 H       1  UNL1        0.1512
     14 C         138.6811  140.2605  165.3356 C.3     1  UNL1        0.0912
     15 C         139.5298  140.7703  166.4625 C.3     1  UNL1        0.0227
     16 C         140.2702  142.0667  166.3168 C.3     1  UNL1        0.0191
     17 C         141.5841  142.1028  165.5943 C.3     1  UNL1        0.0721
     18 N         141.9833  143.3267  164.8243 N.3     1  UNL1       -0.2727
     19 C         141.0516  144.3668  164.2766 C.3     1  UNL1        0.0721
     20 C         141.8770  145.4082  163.5807 C.3     1  UNL1        0.0188
     21 C         143.3189  145.0117  163.6985 C.3     1  UNL1        0.0188
     22 C         143.3846  143.7254  164.4670 C.3     1  UNL1        0.0721
     23 O         144.5251  140.3447  157.7195 O.2     1  UNL1       -0.2697
     24 C         144.9252  141.6803  157.1663 C.2     1  UNL1        0.2517
     25 N         144.1828  142.9163  157.5799 N.am    1  UNL1       -0.2803
     26 H         144.4454  143.7929  157.2168 H       1  UNL1        0.1552
     27 C         146.0677  141.7799  156.1993 C.ar    1  UNL1        0.0811
     28 C         145.9178  141.2499  154.8042 C.ar    1  UNL1        0.0068
     29 C         147.0603  141.3495  153.8373 C.ar    1  UNL1        0.0003
     30 C         148.3526  141.9791  154.2656 C.ar    1  UNL1        0.0023
     31 C         148.5024  142.5092  155.6608 C.ar    1  UNL1        0.0298
     32 C         147.3600  142.4096  156.6276 C.ar    1  UNL1        0.1445
     33 F         147.5098  142.9397  158.0229 F       1  UNL1       -0.2040
@<TRIPOS>BOND
     1    23    24    2
     2    24    25   am
     3    25     1    1
     4     1     2   ar
     5     2     3   ar
     6     3     4   ar
     7     4     7    1
     8     7     8   ar
     9     8     9   ar
    10     9    10   ar
    11    10    12    1
    12    12    14    1
    13    14    15    1
    14    15    16    1
    15    16    17    1
    16    17    18    1
    17    18    19    1
    18    19    20    1
    19    20    21    1
    20    21    22    1
    21    10    11   ar
    22     4     5   ar
    23     5     6   ar
    24    24    27    1
    25    27    28   ar
    26    28    29   ar
    27    29    30   ar
    28    30    31   ar
    29    31    32   ar
    30    32    33    1
    31     6     1   ar
    32    32    27   ar
    33    11     7   ar
    34    22    18    1
    35    25    26    1
    36    12    13    1
@<TRIPOS>MOLECULE
*****
 33 36 0 0 0
SMALL
GASTEIGER

@<TRIPOS>ATOM
      1 C         139.8490  143.5978  163.7970 C.ar    1  UNL1        0.0505
      2 C         139.7627  145.0702  163.5239 C.ar    1  UNL1        0.0148
      3 C         140.0986  145.6013  162.1619 C.ar    1  UNL1        0.0060
      4 C         140.5208  144.6600  161.0730 C.ar    1  UNL1        0.0553
      5 C         140.6071  143.1876  161.3461 C.ar    1  UNL1        0.0060
      6 C         140.2712  142.6565  162.7081 C.ar    1  UNL1        0.0148
      7 C         140.8567  145.1911  159.7109 C.ar    1  UNL1        0.2512
      8 N         142.2009  145.1309  159.0480 N.ar    1  UNL1       -0.1058
      9 N         142.0824  145.7783  157.7001 N.ar    1  UNL1       -0.0923
     10 C         140.6649  146.2386  157.5300 C.ar    1  UNL1        0.3086
     11 O         139.9074  145.8757  158.7728 O.2     1  UNL1       -0.4048
     12 N         140.1035  146.9389  156.3281 N.pl3   1  UNL1       -0.2871
     13 H         140.5789  147.7088  155.9403 H       1  UNL1        0.1512
     14 C         138.8177  146.4661  155.7172 C.3     1  UNL1        0.0912
     15 C         138.7298  145.0907  155.1251 C.3     1  UNL1        0.0227
     16 C         137.3974  144.5306  154.7240 C.3     1  UNL1        0.0191
     17 C         136.7016  143.5418  155.6115 C.3     1  UNL1        0.0721
     18 N         137.4986  142.5144  156.3594 N.3     1  UNL1       -0.2727
     19 C         137.9416  141.1836  155.8277 C.3     1  UNL1        0.0721
     20 C         138.7093  140.4842  156.9101 C.3     1  UNL1        0.0188
     21 C         138.7408  141.3829  158.1108 C.3     1  UNL1        0.0188
     22 C         137.9925  142.6375  157.7704 C.3     1  UNL1        0.0721
     23 O         142.0442  142.7865  165.6740 O.2     1  UNL1       -0.2697
     24 C         140.6107  142.6610  166.0975 C.2     1  UNL1        0.2517
     25 N         139.5131  143.0666  165.1591 N.am    1  UNL1       -0.2803
     26 H         138.5723  142.9843  165.4370 H       1  UNL1        0.1552
     27 C         140.2748  142.1298  167.4596 C.ar    1  UNL1        0.0811
     28 C         140.4113  143.0136  168.6639 C.ar    1  UNL1        0.0068
     29 C         140.0754  142.4824  170.0258 C.ar    1  UNL1        0.0003
     30 C         139.6030  141.0675  170.1835 C.ar    1  UNL1        0.0023
     31 C         139.4664  140.1838  168.9792 C.ar    1  UNL1        0.0298
     32 C         139.8023  140.7149  167.6173 C.ar    1  UNL1        0.1445
     33 F         139.6658  139.8312  166.4129 F       1  UNL1       -0.2040
@<TRIPOS>BOND
     1    23    24    2
     2    24    25   am
     3    25     1    1
     4     1     2   ar
     5     2     3   ar
     6     3     4   ar
     7     4     7    1
     8     7     8   ar
     9     8     9   ar
    10     9    10   ar
    11    10    12    1
    12    12    14    1
    13    14    15    1
    14    15    16    1
    15    16    17    1
    16    17    18    1
    17    18    19    1
    18    19    20    1
    19    20    21    1
    20    21    22    1
    21    10    11   ar
    22     4     5   ar
    23     5     6   ar
    24    24    27    1
    25    27    28   ar
    26    28    29   ar
    27    29    30   ar
    28    30    31   ar
    29    31    32   ar
    30    32    33    1
    31     6     1   ar
    32    32    27   ar
    33    11     7   ar
    34    22    18    1
    35    25    26    1
    36    12    13    1
@<TRIPOS>MOLECULE
*****
 33 36 0 0 0
SMALL
GASTEIGER

@<TRIPOS>ATOM
      1 C         142.5715  138.0430  158.2734 C.ar    1  UNL1        0.0505
      2 C         143.0036  137.6938  159.6667 C.ar    1  UNL1        0.0148
      3 C         143.4798  138.7704  160.5962 C.ar    1  UNL1        0.0060
      4 C         143.5239  140.1963  160.1324 C.ar    1  UNL1        0.0553
      5 C         143.0918  140.5455  158.7392 C.ar    1  UNL1        0.0060
      6 C         142.6156  139.4689  157.8096 C.ar    1  UNL1        0.0148
      7 C         144.0001  141.2729  161.0621 C.ar    1  UNL1        0.2512
      8 N         145.0495  141.1211  162.1230 N.ar    1  UNL1       -0.1058
      9 N         145.2085  142.4447  162.8106 N.ar    1  UNL1       -0.0923
     10 C         144.2573  143.4146  162.1746 C.ar    1  UNL1        0.3086
     11 O         143.5105  142.6904  161.0939 O.2     1  UNL1       -0.4048
     12 N         144.0835  144.8557  162.5528 N.pl3   1  UNL1       -0.2871
     13 H         144.4814  145.5625  161.9948 H       1  UNL1        0.1512
     14 C         143.3034  145.2199  163.7811 C.3     1  UNL1        0.0912
     15 C         141.8758  144.7809  163.9205 C.3     1  UNL1        0.0227
     16 C         141.5427  143.5540  164.7165 C.3     1  UNL1        0.0191
     17 C         141.2248  142.2676  164.0138 C.3     1  UNL1        0.0721
     18 N         142.0219  141.0326  164.3130 N.3     1  UNL1       -0.2727
     19 C         141.8074  139.6767  163.7084 C.3     1  UNL1        0.0721
     20 C         142.8264  138.7428  164.2911 C.3     1  UNL1        0.0188
     21 C         143.6706  139.5216  165.2560 C.3     1  UNL1        0.0188
     22 C         143.1734  140.9366  165.2695 C.3     1  UNL1        0.0721
     23 O         144.3226  137.1277  156.0159 O.2     1  UNL1       -0.2697
     24 C         142.9708  136.5087  156.2151 C.2     1  UNL1        0.2517
     25 N         142.0953  136.9664  157.3438 N.am    1  UNL1       -0.2803
     26 H         141.2081  136.5601  157.4744 H       1  UNL1        0.1552
     27 C         142.4946  135.4321  155.2854 C.ar    1  UNL1        0.0811
     28 C         142.2216  134.0540  155.8111 C.ar    1  UNL1        0.0068
     29 C         141.7455  132.9775  154.8815 C.ar    1  UNL1        0.0003
     30 C         141.5423  133.2790  153.4262 C.ar    1  UNL1        0.0023
     31 C         141.8153  134.6570  152.9006 C.ar    1  UNL1        0.0298
     32 C         142.2914  135.7336  153.8302 C.ar    1  UNL1        0.1445
     33 F         142.5645  137.1117  153.3045 F       1  UNL1       -0.2040
@<TRIPOS>BOND
     1    23    24    2
     2    24    25   am
     3    25     1    1
     4     1     2   ar
     5     2     3   ar
     6     3     4   ar
     7     4     7    1
     8     7     8   ar
     9     8     9   ar
    10     9    10   ar
    11    10    12    1
    12    12    14    1
    13    14    15    1
    14    15    16    1
    15    16    17    1
    16    17    18    1
    17    18    19    1
    18    19    20    1
    19    20    21    1
    20    21    22    1
    21    10    11   ar
    22     4     5   ar
    23     5     6   ar
    24    24    27    1
    25    27    28   ar
    26    28    29   ar
    27    29    30   ar
    28    30    31   ar
    29    31    32   ar
    30    32    33    1
    31     6     1   ar
    32    32    27   ar
    33    11     7   ar
    34    22    18    1
    35    25    26    1
    36    12    13    1
@<TRIPOS>MOLECULE
*****
 33 36 0 0 0
SMALL
GASTEIGER

@<TRIPOS>ATOM
      1 C         142.4695  138.9560  169.8922 C.ar    1  UNL1        0.0505
      2 C         141.1292  139.5408  170.2260 C.ar    1  UNL1        0.0148
      3 C         140.2967  140.1710  169.1491 C.ar    1  UNL1        0.0060
      4 C         140.8045  140.2164  167.7384 C.ar    1  UNL1        0.0553
      5 C         142.1449  139.6316  167.4046 C.ar    1  UNL1        0.0060
      6 C         142.9774  139.0014  168.4815 C.ar    1  UNL1        0.0148
      7 C         139.9719  140.8467  166.6615 C.ar    1  UNL1        0.2512
      8 N         139.9915  142.2931  166.2648 N.ar    1  UNL1       -0.1058
      9 N         139.0053  142.4816  165.1504 N.ar    1  UNL1       -0.0923
     10 C         138.3762  141.1515  164.8583 C.ar    1  UNL1        0.3086
     11 O         138.9736  140.1411  165.7923 O.2     1  UNL1       -0.4048
     12 N         137.3329  140.8796  163.8155 N.pl3   1  UNL1       -0.2871
     13 H         136.4189  140.6334  164.0860 H       1  UNL1        0.1512
     14 C         137.6822  140.9828  162.3604 C.3     1  UNL1        0.0912
     15 C         138.3560  139.8356  161.6676 C.3     1  UNL1        0.0227
     16 C         138.0764  138.4277  162.1031 C.3     1  UNL1        0.0191
     17 C         139.0466  137.7121  162.9955 C.3     1  UNL1        0.0721
     18 N         140.5153  137.9976  162.8885 N.3     1  UNL1       -0.2727
     19 C         141.3786  138.5913  163.9619 C.3     1  UNL1        0.0721
     20 C         142.7754  138.7001  163.4260 C.3     1  UNL1        0.0188
     21 C         142.7753  138.1735  162.0214 C.3     1  UNL1        0.0188
     22 C         141.3786  137.7394  161.6893 C.3     1  UNL1        0.0721
     23 O         144.2377  136.6198  169.2474 O.2     1  UNL1       -0.2697
     24 C         144.1862  137.1577  170.6467 C.2     1  UNL1        0.2517
     25 N         143.3021  138.3258  170.9691 N.am    1  UNL1       -0.2803
     26 H         143.2683  138.6788  171.8875 H       1  UNL1        0.1552
     27 C         145.0188  136.5274  171.7236 C.ar    1  UNL1        0.0811
     28 C         145.8306  137.3889  172.6448 C.ar    1  UNL1        0.0068
     29 C         146.6631  136.7587  173.7216 C.ar    1  UNL1        0.0003
     30 C         146.6838  135.2669  173.8773 C.ar    1  UNL1        0.0023
     31 C         145.8720  134.4054  172.9560 C.ar    1  UNL1        0.0298
     32 C         145.0394  135.0357  171.8792 C.ar    1  UNL1        0.1445
     33 F         144.2275  134.1742  170.9579 F       1  UNL1       -0.2040
@<TRIPOS>BOND
     1    23    24    2
     2    24    25   am
     3    25     1    1
     4     1     2   ar
     5     2     3   ar
     6     3     4   ar
     7     4     7    1
     8     7     8   ar
     9     8     9   ar
    10     9    10   ar
    11    10    12    1
    12    12    14    1
    13    14    15    1
    14    15    16    1
    15    16    17    1
    16    17    18    1
    17    18    19    1
    18    19    20    1
    19    20    21    1
    20    21    22    1
    21    10    11   ar
    22     4     5   ar
    23     5     6   ar
    24    24    27    1
    25    27    28   ar
    26    28    29   ar
    27    29    30   ar
    28    30    31   ar
    29    31    32   ar
    30    32    33    1
    31     6     1   ar
    32    32    27   ar
    33    11     7   ar
    34    22    18    1
    35    25    26    1
    36    12    13    1
@<TRIPOS>MOLECULE
*****
 33 36 0 0 0
SMALL
GASTEIGER

@<TRIPOS>ATOM
      1 C         141.7702  138.5101  163.3460 C.ar    1  UNL1        0.0505
      2 C         143.2013  138.3974  162.9110 C.ar    1  UNL1        0.0148
      3 C         143.5406  138.3627  161.4503 C.ar    1  UNL1        0.0060
      4 C         142.4488  138.4406  160.4246 C.ar    1  UNL1        0.0553
      5 C         141.0177  138.5533  160.8597 C.ar    1  UNL1        0.0060
      6 C         140.6784  138.5880  162.3204 C.ar    1  UNL1        0.0148
      7 C         142.7881  138.4059  158.9639 C.ar    1  UNL1        0.2512
      8 N         143.8278  139.2435  158.2801 N.ar    1  UNL1       -0.1058
      9 N         143.8296  138.8828  156.8241 N.ar    1  UNL1       -0.0923
     10 C         142.7911  137.8221  156.6081 C.ar    1  UNL1        0.3086
     11 O         142.1474  137.5274  157.9305 O.2     1  UNL1       -0.4048
     12 N         142.4552  137.1706  155.2994 N.pl3   1  UNL1       -0.2871
     13 H         142.5899  137.6611  154.4564 H       1  UNL1        0.1512
     14 C         141.9140  135.7719  155.2749 C.3     1  UNL1        0.0912
     15 C         142.2033  134.8761  154.1071 C.3     1  UNL1        0.0227
     16 C         141.4555  133.5855  153.9485 C.3     1  UNL1        0.0191
     17 C         141.5210  132.5436  155.0254 C.3     1  UNL1        0.0721
     18 N         142.8165  132.2763  155.7327 N.3     1  UNL1       -0.2727
     19 C         143.9558  131.4552  155.2057 C.3     1  UNL1        0.0721
     20 C         145.0435  131.4547  156.2386 C.3     1  UNL1        0.0188
     21 C         144.5764  132.2754  157.4041 C.3     1  UNL1        0.0188
     22 C         143.2001  132.7831  157.0914 C.3     1  UNL1        0.0721
     23 O         142.6330  140.8371  165.0315 O.2     1  UNL1       -0.2697
     24 C         141.8622  139.7083  165.6495 C.2     1  UNL1        0.2517
     25 N         141.4309  138.5448  164.8068 N.am    1  UNL1       -0.2803
     26 H         140.9250  137.8040  165.2124 H       1  UNL1        0.1552
     27 C         141.5229  139.7431  167.1102 C.ar    1  UNL1        0.0811
     28 C         142.5730  139.4218  168.1320 C.ar    1  UNL1        0.0068
     29 C         142.2336  139.4565  169.5926 C.ar    1  UNL1        0.0003
     30 C         140.8442  139.8126  170.0315 C.ar    1  UNL1        0.0023
     31 C         139.7941  140.1339  169.0098 C.ar    1  UNL1        0.0298
     32 C         140.1334  140.0991  167.5491 C.ar    1  UNL1        0.1445
     33 F         139.0833  140.4205  166.5273 F       1  UNL1       -0.2040
@<TRIPOS>BOND
     1    23    24    2
     2    24    25   am
     3    25     1    1
     4     1     2   ar
     5     2     3   ar
     6     3     4   ar
     7     4     7    1
     8     7     8   ar
     9     8     9   ar
    10     9    10   ar
    11    10    12    1
    12    12    14    1
    13    14    15    1
    14    15    16    1
    15    16    17    1
    16    17    18    1
    17    18    19    1
    18    19    20    1
    19    20    21    1
    20    21    22    1
    21    10    11   ar
    22     4     5   ar
    23     5     6   ar
    24    24    27    1
    25    27    28   ar
    26    28    29   ar
    27    29    30   ar
    28    30    31   ar
    29    31    32   ar
    30    32    33    1
    31     6     1   ar
    32    32    27   ar
    33    11     7   ar
    34    22    18    1
    35    25    26    1
    36    12    13    1
