@<TRIPOS>MOLECULE
*****
 34 38 0 0 0
SMALL
GASTEIGER

@<TRIPOS>ATOM
      1 C         141.9094  141.8538  160.3335 C.3     1  UNL1        0.0019
      2 C         141.8946  143.3369  160.5576 C.3     1  UNL1        0.0173
      3 C         142.7506  143.9419  161.6306 C.3     1  UNL1        0.0722
      4 N         142.7734  142.1599  165.7626 N.pl3   1  UNL1       -0.3023
      5 C         141.5788  142.9311  165.2851 C.3     1  UNL1        0.1082
      6 C         141.5712  143.5251  163.9077 C.3     1  UNL1        0.0938
      7 N         142.7582  143.3479  163.0080 N.3     1  UNL1       -0.2698
      8 C         143.9528  142.5767  163.4855 C.3     1  UNL1        0.0938
      9 C         143.9604  141.9827  164.8628 C.3     1  UNL1        0.1082
     10 C         142.2439  140.1833  167.3634 C.ar    1  UNL1        0.1519
     11 C         142.2516  139.5891  168.7407 C.ar    1  UNL1        0.0382
     12 C         142.7964  140.3776  169.8946 C.ar    1  UNL1        0.0032
     13 C         143.3336  141.7602  169.6711 C.ar    1  UNL1        0.0015
     14 C         143.3259  142.3543  168.2938 C.ar    1  UNL1        0.0176
     15 C         142.7811  141.5658  167.1399 C.ar    1  UNL1        0.0824
     16 C         142.5597  138.3744  165.5253 C.3     1  UNL1        0.2525
     17 O         141.6990  139.3947  166.2095 O.3     1  UNL1       -0.4702
     18 C         140.9652  141.2351  159.3458 C.3     1  UNL1        0.0099
     19 C         139.6123  140.7669  159.7934 C.3     1  UNL1        0.0885
     20 C         139.4943  139.7756  160.9131 C.2     1  UNL1        0.2412
     21 O         139.8442  138.3358  160.6800 O.2     1  UNL1       -0.2716
     22 N         139.0264  140.2242  162.2658 N.ar    1  UNL1       -0.2780
     23 C         138.8597  139.3523  163.4750 C.ar    1  UNL1        0.0665
     24 C         139.0880  137.8862  163.6943 C.ar    1  UNL1        0.0176
     25 C         138.8298  137.2804  165.0420 C.ar    1  UNL1        0.0015
     26 C         138.3435  138.1408  166.1704 C.ar    1  UNL1        0.0001
     27 C         138.1153  139.6070  165.9510 C.ar    1  UNL1        0.0015
     28 C         138.3734  140.2128  164.6033 C.ar    1  UNL1        0.0176
     29 C         138.2395  141.6164  164.0915 C.ar    1  UNL1        0.0176
     30 C         137.8023  142.8889  164.7543 C.ar    1  UNL1        0.0015
     31 C         137.7686  144.1686  163.9724 C.ar    1  UNL1        0.0001
     32 C         138.1722  144.1757  162.5277 C.ar    1  UNL1        0.0015
     33 C         138.6095  142.9032  161.8650 C.ar    1  UNL1        0.0176
     34 C         138.6431  141.6235  162.6468 C.ar    1  UNL1        0.0665
@<TRIPOS>BOND
     1    16    17    1
     2    17    10    1
     3    10    11   ar
     4    11    12   ar
     5    12    13   ar
     6    13    14   ar
     7    14    15   ar
     8    15     4    1
     9     4     5    1
    10     5     6    1
    11     6     7    1
    12     7     3    1
    13     3     2    1
    14     2     1    1
    15     1    18    1
    16    18    19    1
    17    19    20    1
    18    20    21    2
    19    20    22   am
    20    22    23   ar
    21    23    24   ar
    22    24    25   ar
    23    25    26   ar
    24    26    27   ar
    25    27    28   ar
    26    28    29   ar
    27    29    30   ar
    28    30    31   ar
    29    31    32   ar
    30    32    33   ar
    31    33    34   ar
    32     7     8    1
    33     8     9    1
    34    15    10   ar
    35     9     4    1
    36    34    22   ar
    37    28    23   ar
    38    34    29   ar
@<TRIPOS>MOLECULE
*****
 34 38 0 0 0
SMALL
GASTEIGER

@<TRIPOS>ATOM
      1 C         143.7019  138.3251  166.2352 C.3     1  UNL1        0.0019
      2 C         143.4523  138.7065  164.8061 C.3     1  UNL1        0.0173
      3 C         144.4305  139.5834  164.0820 C.3     1  UNL1        0.0722
      4 N         142.9732  142.4849  160.9664 N.pl3   1  UNL1       -0.3023
      5 C         144.3814  142.5753  161.4750 C.3     1  UNL1        0.1082
      6 C         144.8672  141.6081  162.5135 C.3     1  UNL1        0.0938
      7 N         143.9447  140.5506  163.0434 N.3     1  UNL1       -0.2698
      8 C         142.5365  140.4602  162.5348 C.3     1  UNL1        0.0938
      9 C         142.0507  141.4274  161.4963 C.3     1  UNL1        0.1082
     10 C         142.9290  143.3058  158.5018 C.ar    1  UNL1        0.1519
     11 C         142.4432  144.2729  157.4632 C.ar    1  UNL1        0.0382
     12 C         141.5158  145.3863  157.8506 C.ar    1  UNL1        0.0032
     13 C         141.0741  145.5326  159.2766 C.ar    1  UNL1        0.0015
     14 C         141.5599  144.5655  160.3152 C.ar    1  UNL1        0.0176
     15 C         142.4873  143.4521  159.9278 C.ar    1  UNL1        0.0824
     16 C         145.3069  142.4783  157.8610 C.3     1  UNL1        0.2525
     17 O         143.8565  142.1923  158.1143 O.3     1  UNL1       -0.4702
     18 C         142.9055  138.9665  167.3326 C.3     1  UNL1        0.0099
     19 C         142.4514  140.3896  167.1964 C.3     1  UNL1        0.0885
     20 C         141.1629  140.7018  166.4945 C.2     1  UNL1        0.2412
     21 O         139.9623  139.8282  166.7071 O.2     1  UNL1       -0.2716
     22 N         141.0753  141.8876  165.5800 N.ar    1  UNL1       -0.2780
     23 C         139.8611  142.3223  164.8139 C.ar    1  UNL1        0.0665
     24 C         138.4737  141.7587  164.7277 C.ar    1  UNL1        0.0176
     25 C         137.4471  142.4231  163.8591 C.ar    1  UNL1        0.0015
     26 C         137.8078  143.6510  163.0767 C.ar    1  UNL1        0.0001
     27 C         139.1952  144.2145  163.1629 C.ar    1  UNL1        0.0015
     28 C         140.2219  143.5502  164.0315 C.ar    1  UNL1        0.0176
     29 C         141.6589  143.8743  164.3140 C.ar    1  UNL1        0.0176
     30 C         142.5554  144.9723  163.8234 C.ar    1  UNL1        0.0015
     31 C         143.9793  145.0428  164.2899 C.ar    1  UNL1        0.0001
     32 C         144.5067  144.0153  165.2469 C.ar    1  UNL1        0.0015
     33 C         143.6103  142.9172  165.7375 C.ar    1  UNL1        0.0176
     34 C         142.1864  142.8467  165.2710 C.ar    1  UNL1        0.0665
@<TRIPOS>BOND
     1    16    17    1
     2    17    10    1
     3    10    11   ar
     4    11    12   ar
     5    12    13   ar
     6    13    14   ar
     7    14    15   ar
     8    15     4    1
     9     4     5    1
    10     5     6    1
    11     6     7    1
    12     7     3    1
    13     3     2    1
    14     2     1    1
    15     1    18    1
    16    18    19    1
    17    19    20    1
    18    20    21    2
    19    20    22   am
    20    22    23   ar
    21    23    24   ar
    22    24    25   ar
    23    25    26   ar
    24    26    27   ar
    25    27    28   ar
    26    28    29   ar
    27    29    30   ar
    28    30    31   ar
    29    31    32   ar
    30    32    33   ar
    31    33    34   ar
    32     7     8    1
    33     8     9    1
    34    15    10   ar
    35     9     4    1
    36    34    22   ar
    37    28    23   ar
    38    34    29   ar
@<TRIPOS>MOLECULE
*****
 34 38 0 0 0
SMALL
GASTEIGER

@<TRIPOS>ATOM
      1 C         142.8410  138.0183  161.3232 C.3     1  UNL1        0.0019
      2 C         143.7511  138.9624  162.0515 C.3     1  UNL1        0.0173
      3 C         143.2306  140.2843  162.5330 C.3     1  UNL1        0.0722
      4 N         141.6552  140.6890  166.7287 N.pl3   1  UNL1       -0.3023
      5 C         142.1668  139.3648  166.2442 C.3     1  UNL1        0.1082
      6 C         142.6919  139.2299  164.8456 C.3     1  UNL1        0.0938
      7 N         142.7055  140.4192  163.9316 N.3     1  UNL1       -0.2698
      8 C         142.1940  141.7434  164.4162 C.3     1  UNL1        0.0938
      9 C         141.6688  141.8783  165.8147 C.3     1  UNL1        0.1082
     10 C         141.9810  141.4530  169.1904 C.ar    1  UNL1        0.1519
     11 C         141.4559  141.5880  170.5890 C.ar    1  UNL1        0.0382
     12 C         140.0799  141.0940  170.9245 C.ar    1  UNL1        0.0032
     13 C         139.2290  140.4649  169.8614 C.ar    1  UNL1        0.0015
     14 C         139.7541  140.3299  168.4628 C.ar    1  UNL1        0.0176
     15 C         141.1301  140.8240  168.1273 C.ar    1  UNL1        0.0824
     16 C         144.2152  142.5586  169.9225 C.3     1  UNL1        0.2525
     17 O         143.3571  141.9471  168.8551 O.3     1  UNL1       -0.4702
     18 C         141.9669  138.5248  160.2144 C.3     1  UNL1        0.0099
     19 C         140.5189  138.8171  160.4750 C.3     1  UNL1        0.0885
     20 C         140.0807  140.2175  160.7864 C.2     1  UNL1        0.2412
     21 O         140.2668  141.3050  159.7703 O.2     1  UNL1       -0.2716
     22 N         139.4564  140.5302  162.1140 N.ar    1  UNL1       -0.2780
     23 C         138.9717  141.8761  162.5652 C.ar    1  UNL1        0.0665
     24 C         138.9591  143.2161  161.8912 C.ar    1  UNL1        0.0176
     25 C         138.3977  144.4096  162.6056 C.ar    1  UNL1        0.0015
     26 C         137.8490  144.2632  163.9939 C.ar    1  UNL1        0.0001
     27 C         137.8615  142.9232  164.6678 C.ar    1  UNL1        0.0015
     28 C         138.4229  141.7297  163.9535 C.ar    1  UNL1        0.0176
     29 C         138.5685  140.2933  164.3603 C.ar    1  UNL1        0.0176
     30 C         138.2019  139.5645  165.6191 C.ar    1  UNL1        0.0015
     31 C         138.4741  138.0945  165.7410 C.ar    1  UNL1        0.0001
     32 C         139.1128  137.3531  164.6042 C.ar    1  UNL1        0.0015
     33 C         139.4794  138.0819  163.3454 C.ar    1  UNL1        0.0176
     34 C         139.2072  139.5519  163.2234 C.ar    1  UNL1        0.0665
@<TRIPOS>BOND
     1    16    17    1
     2    17    10    1
     3    10    11   ar
     4    11    12   ar
     5    12    13   ar
     6    13    14   ar
     7    14    15   ar
     8    15     4    1
     9     4     5    1
    10     5     6    1
    11     6     7    1
    12     7     3    1
    13     3     2    1
    14     2     1    1
    15     1    18    1
    16    18    19    1
    17    19    20    1
    18    20    21    2
    19    20    22   am
    20    22    23   ar
    21    23    24   ar
    22    24    25   ar
    23    25    26   ar
    24    26    27   ar
    25    27    28   ar
    26    28    29   ar
    27    29    30   ar
    28    30    31   ar
    29    31    32   ar
    30    32    33   ar
    31    33    34   ar
    32     7     8    1
    33     8     9    1
    34    15    10   ar
    35     9     4    1
    36    34    22   ar
    37    28    23   ar
    38    34    29   ar
@<TRIPOS>MOLECULE
*****
 34 38 0 0 0
SMALL
GASTEIGER

@<TRIPOS>ATOM
      1 C         138.0584  138.4460  161.7309 C.3     1  UNL1        0.0019
      2 C         138.5387  137.6180  162.8858 C.3     1  UNL1        0.0173
      3 C         139.9758  137.6852  163.3105 C.3     1  UNL1        0.0722
      4 N         141.1560  140.1724  166.8701 N.pl3   1  UNL1       -0.3023
      5 C         139.7164  140.0904  166.4566 C.3     1  UNL1        0.1082
      6 C         139.3231  139.2613  165.2701 C.3     1  UNL1        0.0938
      7 N         140.3692  138.5143  164.4971 N.3     1  UNL1       -0.2698
      8 C         141.8087  138.5963  164.9106 C.3     1  UNL1        0.0938
      9 C         142.2021  139.4254  166.0971 C.3     1  UNL1        0.1082
     10 C         142.4504  140.4254  169.1085 C.ar    1  UNL1        0.1519
     11 C         142.8439  141.2544  170.2950 C.ar    1  UNL1        0.0382
     12 C         142.3365  142.6595  170.4298 C.ar    1  UNL1        0.0032
     13 C         141.4355  143.2356  169.3780 C.ar    1  UNL1        0.0015
     14 C         141.0420  142.4066  168.1914 C.ar    1  UNL1        0.0176
     15 C         141.5494  141.0015  168.0566 C.ar    1  UNL1        0.0824
     16 C         142.9660  138.1084  170.1647 C.3     1  UNL1        0.2525
     17 O         142.9580  139.0202  168.9738 O.3     1  UNL1       -0.4702
     18 C         139.0306  138.9171  160.6903 C.3     1  UNL1        0.0099
     19 C         139.5953  140.3047  160.7650 C.3     1  UNL1        0.0885
     20 C         140.9491  140.5321  161.3699 C.2     1  UNL1        0.2412
     21 O         142.1469  139.8188  160.8167 O.2     1  UNL1       -0.2716
     22 N         141.1047  141.4727  162.5279 N.ar    1  UNL1       -0.2780
     23 C         142.3882  141.7986  163.2327 C.ar    1  UNL1        0.0665
     24 C         143.7968  141.3286  163.0210 C.ar    1  UNL1        0.0176
     25 C         144.8982  141.8398  163.9015 C.ar    1  UNL1        0.0015
     26 C         144.5911  142.8211  164.9937 C.ar    1  UNL1        0.0001
     27 C         143.1825  143.2911  165.2053 C.ar    1  UNL1        0.0015
     28 C         142.0810  142.7799  164.3248 C.ar    1  UNL1        0.0176
     29 C         140.6078  143.0604  164.2950 C.ar    1  UNL1        0.0176
     30 C         139.7377  143.9472  165.1356 C.ar    1  UNL1        0.0015
     31 C         138.2643  144.0261  164.8657 C.ar    1  UNL1        0.0001
     32 C         137.6609  143.2182  163.7551 C.ar    1  UNL1        0.0015
     33 C         138.5310  142.3315  162.9145 C.ar    1  UNL1        0.0176
     34 C         140.0044  142.2526  163.1844 C.ar    1  UNL1        0.0665
@<TRIPOS>BOND
     1    16    17    1
     2    17    10    1
     3    10    11   ar
     4    11    12   ar
     5    12    13   ar
     6    13    14   ar
     7    14    15   ar
     8    15     4    1
     9     4     5    1
    10     5     6    1
    11     6     7    1
    12     7     3    1
    13     3     2    1
    14     2     1    1
    15     1    18    1
    16    18    19    1
    17    19    20    1
    18    20    21    2
    19    20    22   am
    20    22    23   ar
    21    23    24   ar
    22    24    25   ar
    23    25    26   ar
    24    26    27   ar
    25    27    28   ar
    26    28    29   ar
    27    29    30   ar
    28    30    31   ar
    29    31    32   ar
    30    32    33   ar
    31    33    34   ar
    32     7     8    1
    33     8     9    1
    34    15    10   ar
    35     9     4    1
    36    34    22   ar
    37    28    23   ar
    38    34    29   ar
@<TRIPOS>MOLECULE
*****
 34 38 0 0 0
SMALL
GASTEIGER

@<TRIPOS>ATOM
      1 C         140.7992  145.2709  159.9383 C.3     1  UNL1        0.0019
      2 C         140.3881  144.8776  158.5503 C.3     1  UNL1        0.0173
      3 C         140.1881  143.4307  158.2089 C.3     1  UNL1        0.0722
      4 N         140.6821  140.2807  161.3843 N.pl3   1  UNL1       -0.3023
      5 C         141.8368  140.6375  160.4959 C.3     1  UNL1        0.1082
      6 C         141.6721  141.6875  159.4374 C.3     1  UNL1        0.0938
      7 N         140.3528  142.3807  159.2674 N.3     1  UNL1       -0.2698
      8 C         139.1981  142.0239  160.1559 C.3     1  UNL1        0.0938
      9 C         139.3628  140.9739  161.2143 C.3     1  UNL1        0.1082
     10 C         142.0827  139.2096  163.2925 C.ar    1  UNL1        0.1519
     11 C         142.2474  138.1597  164.3510 C.ar    1  UNL1        0.0382
     12 C         141.1761  137.1308  164.5599 C.ar    1  UNL1        0.0032
     13 C         139.9401  137.1519  163.7103 C.ar    1  UNL1        0.0015
     14 C         139.7754  138.2018  162.6518 C.ar    1  UNL1        0.0176
     15 C         140.8467  139.2307  162.4429 C.ar    1  UNL1        0.0824
     16 C         144.5930  139.8202  163.0173 C.3     1  UNL1        0.2525
     17 O         143.1541  140.2385  163.0837 O.3     1  UNL1       -0.4702
     18 C         139.8575  146.0515  160.8064 C.3     1  UNL1        0.0099
     19 C         139.8821  145.8669  162.2948 C.3     1  UNL1        0.0885
     20 C         139.2599  144.6483  162.9098 C.2     1  UNL1        0.2412
     21 O         137.8233  144.3186  162.6321 O.2     1  UNL1       -0.2716
     22 N         140.0744  143.7597  163.8025 N.ar    1  UNL1       -0.2780
     23 C         139.5915  142.5141  164.4847 C.ar    1  UNL1        0.0665
     24 C         138.2594  141.8245  164.4895 C.ar    1  UNL1        0.0176
     25 C         138.0693  140.5660  165.2832 C.ar    1  UNL1        0.0015
     26 C         139.2113  139.9971  166.0720 C.ar    1  UNL1        0.0001
     27 C         140.5434  140.6866  166.0671 C.ar    1  UNL1        0.0015
     28 C         140.7334  141.9452  165.2735 C.ar    1  UNL1        0.0176
     29 C         141.9221  142.8391  165.0787 C.ar    1  UNL1        0.0176
     30 C         143.3228  142.7768  165.6118 C.ar    1  UNL1        0.0015
     31 C         144.3162  143.8359  165.2358 C.ar    1  UNL1        0.0001
     32 C         143.9090  144.9574  164.3266 C.ar    1  UNL1        0.0015
     33 C         142.5083  145.0196  163.7936 C.ar    1  UNL1        0.0176
     34 C         141.5149  143.9605  164.1696 C.ar    1  UNL1        0.0665
@<TRIPOS>BOND
     1    16    17    1
     2    17    10    1
     3    10    11   ar
     4    11    12   ar
     5    12    13   ar
     6    13    14   ar
     7    14    15   ar
     8    15     4    1
     9     4     5    1
    10     5     6    1
    11     6     7    1
    12     7     3    1
    13     3     2    1
    14     2     1    1
    15     1    18    1
    16    18    19    1
    17    19    20    1
    18    20    21    2
    19    20    22   am
    20    22    23   ar
    21    23    24   ar
    22    24    25   ar
    23    25    26   ar
    24    26    27   ar
    25    27    28   ar
    26    28    29   ar
    27    29    30   ar
    28    30    31   ar
    29    31    32   ar
    30    32    33   ar
    31    33    34   ar
    32     7     8    1
    33     8     9    1
    34    15    10   ar
    35     9     4    1
    36    34    22   ar
    37    28    23   ar
    38    34    29   ar
@<TRIPOS>MOLECULE
*****
 34 38 0 0 0
SMALL
GASTEIGER

@<TRIPOS>ATOM
      1 C         138.8465  144.6363  163.9325 C.3     1  UNL1        0.0019
      2 C         137.7400  143.9300  163.2067 C.3     1  UNL1        0.0173
      3 C         137.6398  142.4344  163.2648 C.3     1  UNL1        0.0722
      4 N         139.8015  139.9149  160.2270 N.pl3   1  UNL1       -0.3023
      5 C         140.1958  141.3478  160.4299 C.3     1  UNL1        0.1082
      6 C         139.4752  142.1876  161.4425 C.3     1  UNL1        0.0938
      7 N         138.3604  141.5945  162.2522 N.3     1  UNL1       -0.2698
      8 C         137.9662  140.1616  162.0492 C.3     1  UNL1        0.0938
      9 C         138.6868  139.3218  161.0366 C.3     1  UNL1        0.1082
     10 C         139.8906  138.8007  157.8816 C.ar    1  UNL1        0.1519
     11 C         140.6111  137.9607  156.8690 C.ar    1  UNL1        0.0382
     12 C         141.9630  137.3951  157.1890 C.ar    1  UNL1        0.0032
     13 C         142.5944  137.6694  158.5216 C.ar    1  UNL1        0.0015
     14 C         141.8740  138.5093  159.5343 C.ar    1  UNL1        0.0176
     15 C         140.5221  139.0749  159.2143 C.ar    1  UNL1        0.0824
     16 C         138.4191  140.5599  156.6611 C.3     1  UNL1        0.2525
     17 O         138.5387  139.3663  157.5615 O.3     1  UNL1       -0.4702
     18 C         139.0275  144.4299  165.4072 C.3     1  UNL1        0.0099
     19 C         139.8850  143.3055  165.9074 C.3     1  UNL1        0.0885
     20 C         141.0340  142.8124  165.0785 C.2     1  UNL1        0.2412
     21 O         142.0896  143.7715  164.6142 O.2     1  UNL1       -0.2716
     22 N         141.1271  141.3604  164.7140 N.ar    1  UNL1       -0.2780
     23 C         142.2116  140.7246  163.8957 C.ar    1  UNL1        0.0665
     24 C         143.4373  141.2897  163.2412 C.ar    1  UNL1        0.0176
     25 C         144.3582  140.3906  162.4708 C.ar    1  UNL1        0.0015
     26 C         144.0534  138.9265  162.3548 C.ar    1  UNL1        0.0001
     27 C         142.8278  138.3614  163.0093 C.ar    1  UNL1        0.0015
     28 C         141.9069  139.2604  163.7798 C.ar    1  UNL1        0.0176
     29 C         140.6340  138.9914  164.5264 C.ar    1  UNL1        0.0176
     30 C         139.8516  137.7323  164.7551 C.ar    1  UNL1        0.0015
     31 C         138.5871  137.7710  165.5612 C.ar    1  UNL1        0.0001
     32 C         138.1052  139.0688  166.1386 C.ar    1  UNL1        0.0015
     33 C         138.8877  140.3279  165.9099 C.ar    1  UNL1        0.0176
     34 C         140.1521  140.2892  165.1038 C.ar    1  UNL1        0.0665
@<TRIPOS>BOND
     1    16    17    1
     2    17    10    1
     3    10    11   ar
     4    11    12   ar
     5    12    13   ar
     6    13    14   ar
     7    14    15   ar
     8    15     4    1
     9     4     5    1
    10     5     6    1
    11     6     7    1
    12     7     3    1
    13     3     2    1
    14     2     1    1
    15     1    18    1
    16    18    19    1
    17    19    20    1
    18    20    21    2
    19    20    22   am
    20    22    23   ar
    21    23    24   ar
    22    24    25   ar
    23    25    26   ar
    24    26    27   ar
    25    27    28   ar
    26    28    29   ar
    27    29    30   ar
    28    30    31   ar
    29    31    32   ar
    30    32    33   ar
    31    33    34   ar
    32     7     8    1
    33     8     9    1
    34    15    10   ar
    35     9     4    1
    36    34    22   ar
    37    28    23   ar
    38    34    29   ar
@<TRIPOS>MOLECULE
*****
 34 38 0 0 0
SMALL
GASTEIGER

@<TRIPOS>ATOM
      1 C         138.5436  139.0892  165.3980 C.3     1  UNL1        0.0019
      2 C         139.0004  137.8298  164.7234 C.3     1  UNL1        0.0173
      3 C         138.8887  137.6939  163.2336 C.3     1  UNL1        0.0722
      4 N         141.7064  139.9547  160.5506 N.pl3   1  UNL1       -0.3023
      5 C         140.3218  139.6257  160.0769 C.3     1  UNL1        0.1082
      6 C         139.3825  138.8721  160.9713 C.3     1  UNL1        0.0938
      7 N         139.8280  138.4475  162.3393 N.3     1  UNL1       -0.2698
      8 C         141.2126  138.7766  162.8129 C.3     1  UNL1        0.0938
      9 C         142.1518  139.5302  161.9186 C.3     1  UNL1        0.1082
     10 C         143.4769  139.9701  158.6493 C.ar    1  UNL1        0.1519
     11 C         144.4163  140.7236  157.7550 C.ar    1  UNL1        0.0382
     12 C         144.5244  142.2154  157.8676 C.ar    1  UNL1        0.0032
     13 C         143.6933  142.9537  158.8746 C.ar    1  UNL1        0.0015
     14 C         142.7539  142.2002  159.7690 C.ar    1  UNL1        0.0176
     15 C         142.6458  140.7084  159.6563 C.ar    1  UNL1        0.0824
     16 C         142.5964  137.8655  157.4061 C.3     1  UNL1        0.2525
     17 O         143.3688  138.4782  158.5365 O.3     1  UNL1       -0.4702
     18 C         138.8789  139.3317  166.8397 C.3     1  UNL1        0.0099
     19 C         139.9654  140.2994  167.2045 C.3     1  UNL1        0.0885
     20 C         141.3049  140.2104  166.5350 C.2     1  UNL1        0.2412
     21 O         142.2065  139.0446  166.8137 O.2     1  UNL1       -0.2716
     22 N         141.7425  141.2873  165.5870 N.ar    1  UNL1       -0.2780
     23 C         143.0466  141.3340  164.8472 C.ar    1  UNL1        0.0665
     24 C         144.2212  140.4015  164.8237 C.ar    1  UNL1        0.0176
     25 C         145.4122  140.7169  163.9682 C.ar    1  UNL1        0.0015
     26 C         145.4286  141.9649  163.1362 C.ar    1  UNL1        0.0001
     27 C         144.2541  142.8975  163.1598 C.ar    1  UNL1        0.0015
     28 C         143.0630  142.5821  164.0152 C.ar    1  UNL1        0.0176
     29 C         141.7691  143.3066  164.2408 C.ar    1  UNL1        0.0176
     30 C         141.2286  144.5916  163.6872 C.ar    1  UNL1        0.0015
     31 C         139.8720  145.0764  164.1050 C.ar    1  UNL1        0.0001
     32 C         139.0558  144.2762  165.0764 C.ar    1  UNL1        0.0015
     33 C         139.5963  142.9912  165.6300 C.ar    1  UNL1        0.0176
     34 C         140.9530  142.5063  165.2122 C.ar    1  UNL1        0.0665
@<TRIPOS>BOND
     1    16    17    1
     2    17    10    1
     3    10    11   ar
     4    11    12   ar
     5    12    13   ar
     6    13    14   ar
     7    14    15   ar
     8    15     4    1
     9     4     5    1
    10     5     6    1
    11     6     7    1
    12     7     3    1
    13     3     2    1
    14     2     1    1
    15     1    18    1
    16    18    19    1
    17    19    20    1
    18    20    21    2
    19    20    22   am
    20    22    23   ar
    21    23    24   ar
    22    24    25   ar
    23    25    26   ar
    24    26    27   ar
    25    27    28   ar
    26    28    29   ar
    27    29    30   ar
    28    30    31   ar
    29    31    32   ar
    30    32    33   ar
    31    33    34   ar
    32     7     8    1
    33     8     9    1
    34    15    10   ar
    35     9     4    1
    36    34    22   ar
    37    28    23   ar
    38    34    29   ar
@<TRIPOS>MOLECULE
*****
 34 38 0 0 0
SMALL
GASTEIGER

@<TRIPOS>ATOM
      1 C         143.1120  140.8398  161.5819 C.3     1  UNL1        0.0019
      2 C         144.2024  139.9000  162.0038 C.3     1  UNL1        0.0173
      3 C         144.0443  139.0783  163.2487 C.3     1  UNL1        0.0722
      4 N         142.3329  140.9398  166.9710 N.pl3   1  UNL1       -0.3023
      5 C         141.9300  139.5506  166.5739 C.3     1  UNL1        0.1082
      6 C         142.5004  138.9301  165.3331 C.3     1  UNL1        0.0938
      7 N         143.4738  139.6988  164.4895 N.3     1  UNL1       -0.2698
      8 C         143.8767  141.0880  164.8866 C.3     1  UNL1        0.0938
      9 C         143.3063  141.7085  166.1274 C.3     1  UNL1        0.1082
     10 C         142.1842  141.0612  169.5620 C.ar    1  UNL1        0.1519
     11 C         141.6138  141.6818  170.8028 C.ar    1  UNL1        0.0382
     12 C         140.6217  142.8015  170.6935 C.ar    1  UNL1        0.0032
     13 C         140.2000  143.3007  169.3433 C.ar    1  UNL1        0.0015
     14 C         140.7704  142.6802  168.1025 C.ar    1  UNL1        0.0176
     15 C         141.7625  141.5604  168.2118 C.ar    1  UNL1        0.0824
     16 C         142.7062  138.5501  169.9763 C.3     1  UNL1        0.2525
     17 O         143.1763  139.9414  169.6714 O.3     1  UNL1       -0.4702
     18 C         142.3632  140.5950  160.3055 C.3     1  UNL1        0.0099
     19 C         140.9430  140.1140  160.3498 C.3     1  UNL1        0.0885
     20 C         140.4755  139.2603  161.4912 C.2     1  UNL1        0.2412
     21 O         140.7094  137.7790  161.4647 O.2     1  UNL1       -0.2716
     22 N         139.7741  139.8881  162.6591 N.ar    1  UNL1       -0.2780
     23 C         139.2527  139.1664  163.8663 C.ar    1  UNL1        0.0665
     24 C         139.2666  137.7173  164.2530 C.ar    1  UNL1        0.0176
     25 C         138.6551  137.2817  165.5516 C.ar    1  UNL1        0.0015
     26 C         138.0297  138.2954  166.4634 C.ar    1  UNL1        0.0001
     27 C         138.0158  139.7446  166.0766 C.ar    1  UNL1        0.0015
     28 C         138.6273  140.1801  164.7780 C.ar    1  UNL1        0.0176
     29 C         138.7622  141.5282  164.1343 C.ar    1  UNL1        0.0176
     30 C         138.3312  142.8968  164.5715 C.ar    1  UNL1        0.0015
     31 C         138.6090  144.0850  163.6991 C.ar    1  UNL1        0.0001
     32 C         139.3177  143.9046  162.3895 C.ar    1  UNL1        0.0015
     33 C         139.7487  142.5360  161.9523 C.ar    1  UNL1        0.0176
     34 C         139.4709  141.3478  162.8247 C.ar    1  UNL1        0.0665
@<TRIPOS>BOND
     1    16    17    1
     2    17    10    1
     3    10    11   ar
     4    11    12   ar
     5    12    13   ar
     6    13    14   ar
     7    14    15   ar
     8    15     4    1
     9     4     5    1
    10     5     6    1
    11     6     7    1
    12     7     3    1
    13     3     2    1
    14     2     1    1
    15     1    18    1
    16    18    19    1
    17    19    20    1
    18    20    21    2
    19    20    22   am
    20    22    23   ar
    21    23    24   ar
    22    24    25   ar
    23    25    26   ar
    24    26    27   ar
    25    27    28   ar
    26    28    29   ar
    27    29    30   ar
    28    30    31   ar
    29    31    32   ar
    30    32    33   ar
    31    33    34   ar
    32     7     8    1
    33     8     9    1
    34    15    10   ar
    35     9     4    1
    36    34    22   ar
    37    28    23   ar
    38    34    29   ar
@<TRIPOS>MOLECULE
*****
 34 38 0 0 0
SMALL
GASTEIGER

@<TRIPOS>ATOM
      1 C         141.8961  142.9264  159.9709 C.3     1  UNL1        0.0019
      2 C         142.1270  143.1228  161.4399 C.3     1  UNL1        0.0173
      3 C         142.7505  142.0279  162.2540 C.3     1  UNL1        0.0722
      4 N         141.5072  141.4211  166.5360 N.pl3   1  UNL1       -0.3023
      5 C         141.3988  142.7793  165.9089 C.3     1  UNL1        0.1082
      6 C         141.8132  142.9816  164.4816 C.3     1  UNL1        0.0938
      7 N         142.3361  141.8256  163.6814 N.3     1  UNL1       -0.2698
      8 C         142.4445  140.4674  164.3085 C.3     1  UNL1        0.0938
      9 C         142.0301  140.2651  165.7358 C.3     1  UNL1        0.1082
     10 C         142.0097  141.6317  169.0763 C.ar    1  UNL1        0.1519
     11 C         141.5954  141.4294  170.5036 C.ar    1  UNL1        0.0382
     12 C         140.2641  140.8140  170.8181 C.ar    1  UNL1        0.0032
     13 C         139.3471  140.4010  169.7052 C.ar    1  UNL1        0.0015
     14 C         139.7615  140.6033  168.2778 C.ar    1  UNL1        0.0176
     15 C         141.0928  141.2187  167.9634 C.ar    1  UNL1        0.0824
     16 C         144.2943  142.5799  169.8712 C.3     1  UNL1        0.2525
     17 O         143.3411  142.2472  168.7619 O.3     1  UNL1       -0.4702
     18 C         141.3868  141.6109  159.4610 C.3     1  UNL1        0.0099
     19 C         140.0129  141.1416  159.8379 C.3     1  UNL1        0.0885
     20 C         139.8440  140.0738  160.8778 C.2     1  UNL1        0.2412
     21 O         140.2531  138.6625  160.5768 O.2     1  UNL1       -0.2716
     22 N         139.2660  140.4175  162.2187 N.ar    1  UNL1       -0.2780
     23 C         139.0386  139.4614  163.3519 C.ar    1  UNL1        0.0665
     24 C         139.2944  137.9900  163.4904 C.ar    1  UNL1        0.0176
     25 C         138.9577  137.2876  164.7723 C.ar    1  UNL1        0.0015
     26 C         138.3652  138.0567  165.9157 C.ar    1  UNL1        0.0001
     27 C         138.1093  139.5282  165.7772 C.ar    1  UNL1        0.0015
     28 C         138.4460  140.2306  164.4953 C.ar    1  UNL1        0.0176
     29 C         138.3073  141.6619  164.0687 C.ar    1  UNL1        0.0176
     30 C         137.7849  142.8750  164.7796 C.ar    1  UNL1        0.0015
     31 C         137.7694  144.2037  164.0836 C.ar    1  UNL1        0.0001
     32 C         138.2762  144.3192  162.6765 C.ar    1  UNL1        0.0015
     33 C         138.7986  143.1061  161.9655 C.ar    1  UNL1        0.0176
     34 C         138.8141  141.7774  162.6616 C.ar    1  UNL1        0.0665
@<TRIPOS>BOND
     1    16    17    1
     2    17    10    1
     3    10    11   ar
     4    11    12   ar
     5    12    13   ar
     6    13    14   ar
     7    14    15   ar
     8    15     4    1
     9     4     5    1
    10     5     6    1
    11     6     7    1
    12     7     3    1
    13     3     2    1
    14     2     1    1
    15     1    18    1
    16    18    19    1
    17    19    20    1
    18    20    21    2
    19    20    22   am
    20    22    23   ar
    21    23    24   ar
    22    24    25   ar
    23    25    26   ar
    24    26    27   ar
    25    27    28   ar
    26    28    29   ar
    27    29    30   ar
    28    30    31   ar
    29    31    32   ar
    30    32    33   ar
    31    33    34   ar
    32     7     8    1
    33     8     9    1
    34    15    10   ar
    35     9     4    1
    36    34    22   ar
    37    28    23   ar
    38    34    29   ar
