@<TRIPOS>MOLECULE
*****
 24 24 0 0 0
SMALL
GASTEIGER

@<TRIPOS>ATOM
      1 C         138.4531  138.9239  165.8238 C.ar    1  UNL1       -0.0178
      2 C         138.9024  137.6078  165.2617 C.ar    1  UNL1       -0.0040
      3 C         139.0720  137.4436  163.7804 C.ar    1  UNL1        0.0028
      4 C         138.7924  138.5955  162.8612 C.ar    1  UNL1        0.0369
      5 C         138.3431  139.9116  163.4233 C.ar    1  UNL1        0.1382
      6 C         138.1734  140.0758  164.9046 C.ar    1  UNL1        0.0327
      7 C         138.2835  139.0881  167.3051 C.3     1  UNL1        0.0435
      8 C         139.3151  139.8320  168.1003 C.3     1  UNL1        0.0737
      9 N         139.1224  140.0366  169.5737 N.3     1  UNL1       -0.2895
     10 H         138.6711  140.9441  169.6884 H       1  UNL1        0.1237
     11 C         140.3068  140.0226  170.4941 C.3     1  UNL1        0.1552
     12 C         142.8998  143.0269  170.4706 C.3     1  UNL1        0.1149
     13 N         142.2162  141.7417  170.1085 N.am    1  UNL1       -0.2749
     14 C         142.7584  140.8907  168.9986 C.3     1  UNL1        0.1149
     15 C         140.9904  141.3077  170.8562 C.2     1  UNL1        0.2419
     16 O         140.4482  142.1588  171.9661 O.2     1  UNL1       -0.2734
     17 O         138.0634  141.0635  162.5042 O.3     1  UNL1       -0.4755
     18 C         137.3142  142.2610  163.0089 C.3     1  UNL1        0.2057
     19 C         137.8333  143.6412  162.7339 C.3     1  UNL1        0.0561
     20 C         138.9879  144.1798  163.5256 C.3     1  UNL1        0.1072
     21 C         138.7678  144.6946  164.9172 C.3     1  UNL1        0.3979
     22 F         138.5478  145.2095  166.3088 F       1  UNL1       -0.1700
     23 F         140.2495  144.6971  165.1506 F       1  UNL1       -0.1700
     24 F         137.2861  144.6921  164.6838 F       1  UNL1       -0.1700
@<TRIPOS>BOND
     1    12    13    1
     2    13    14    1
     3    13    15   am
     4    15    16    2
     5    15    11    1
     6    11     9    1
     7     9     8    1
     8     8     7    1
     9     7     1    1
    10     1     2   ar
    11     2     3   ar
    12     3     4   ar
    13     4     5   ar
    14     5    17    1
    15    17    18    1
    16    18    19    1
    17    19    20    1
    18    20    21    1
    19    21    22    1
    20    21    23    1
    21    21    24    1
    22     5     6   ar
    23     6     1   ar
    24     9    10    1
@<TRIPOS>MOLECULE
*****
 24 24 0 0 0
SMALL
GASTEIGER

@<TRIPOS>ATOM
      1 C         144.2167  142.2394  164.5793 C.ar    1  UNL1       -0.0178
      2 C         145.0736  141.2860  163.8005 C.ar    1  UNL1       -0.0040
      3 C         144.9652  139.8098  164.0438 C.ar    1  UNL1        0.0028
      4 C         143.9999  139.2871  165.0659 C.ar    1  UNL1        0.0369
      5 C         143.1430  140.2405  165.8447 C.ar    1  UNL1        0.1382
      6 C         143.2514  141.7166  165.6014 C.ar    1  UNL1        0.0327
      7 C         144.3251  143.7155  164.3360 C.3     1  UNL1        0.0435
      8 C         144.1924  144.2580  162.9439 C.3     1  UNL1        0.0737
      9 N         142.9583  145.0129  162.5476 N.3     1  UNL1       -0.2895
     10 H         143.2708  145.8559  162.0658 H       1  UNL1        0.1237
     11 C         141.9783  145.4511  163.5953 C.3     1  UNL1        0.1552
     12 C         138.1870  144.4704  162.9513 C.3     1  UNL1        0.1149
     13 N         139.5128  145.1612  162.8288 N.am    1  UNL1       -0.2749
     14 C         139.6990  146.2530  161.8171 C.3     1  UNL1        0.1149
     15 C         140.6525  144.7603  163.7178 C.2     1  UNL1        0.2419
     16 O         140.4663  143.6685  164.7295 O.2     1  UNL1       -0.2734
     17 O         142.1776  139.7177  166.8669 O.3     1  UNL1       -0.4755
     18 C         140.7261  140.0871  166.7856 C.3     1  UNL1        0.2057
     19 C         139.8540  139.4739  165.7303 C.3     1  UNL1        0.0561
     20 C         138.3954  139.2506  165.9992 C.3     1  UNL1        0.1072
     21 C         137.9225  137.9242  166.5159 C.3     1  UNL1        0.3979
     22 F         137.4496  136.5978  167.0326 F       1  UNL1       -0.1700
     23 F         137.0644  138.6242  167.5276 F       1  UNL1       -0.1700
     24 F         138.7806  137.2242  165.5042 F       1  UNL1       -0.1700
@<TRIPOS>BOND
     1    12    13    1
     2    13    14    1
     3    13    15   am
     4    15    16    2
     5    15    11    1
     6    11     9    1
     7     9     8    1
     8     8     7    1
     9     7     1    1
    10     1     2   ar
    11     2     3   ar
    12     3     4   ar
    13     4     5   ar
    14     5    17    1
    15    17    18    1
    16    18    19    1
    17    19    20    1
    18    20    21    1
    19    21    22    1
    20    21    23    1
    21    21    24    1
    22     5     6   ar
    23     6     1   ar
    24     9    10    1
@<TRIPOS>MOLECULE
*****
 24 24 0 0 0
SMALL
GASTEIGER

@<TRIPOS>ATOM
      1 C         137.9916  140.0663  163.7118 C.ar    1  UNL1       -0.0178
      2 C         138.5733  138.8811  163.0000 C.ar    1  UNL1       -0.0040
      3 C         139.2090  137.7723  163.7853 C.ar    1  UNL1        0.0028
      4 C         139.2629  137.8488  165.2823 C.ar    1  UNL1        0.0369
      5 C         138.6811  139.0340  165.9941 C.ar    1  UNL1        0.1382
      6 C         138.0455  140.1428  165.2089 C.ar    1  UNL1        0.0327
      7 C         137.3559  141.1751  162.9266 C.3     1  UNL1        0.0435
      8 C         138.2116  142.1234  162.1403 C.3     1  UNL1        0.0737
      9 N         137.7874  143.5522  161.9713 N.3     1  UNL1       -0.2895
     10 H         138.1548  143.8641  161.0723 H       1  UNL1        0.1237
     11 C         138.1938  144.5802  162.9853 C.3     1  UNL1        0.1552
     12 C         142.0133  145.3289  163.7608 C.3     1  UNL1        0.1149
     13 N         140.6487  144.7096  163.8261 N.am    1  UNL1       -0.2749
     14 C         140.3743  143.6002  164.7978 C.3     1  UNL1        0.1149
     15 C         139.5584  145.1996  162.9199 C.2     1  UNL1        0.2419
     16 O         139.8328  146.3090  161.9483 O.2     1  UNL1       -0.2734
     17 O         138.7350  139.1105  167.4913 O.3     1  UNL1       -0.4755
     18 C         139.7141  140.0289  168.1605 C.3     1  UNL1        0.2057
     19 C         140.9080  140.5321  167.4045 C.3     1  UNL1        0.0561
     20 C         142.2158  139.8034  167.4967 C.3     1  UNL1        0.1072
     21 C         142.7060  138.9924  166.3340 C.3     1  UNL1        0.3979
     22 F         143.1962  138.1812  165.1712 F       1  UNL1       -0.1700
     23 F         143.5546  138.1748  167.2620 F       1  UNL1       -0.1700
     24 F         141.8573  139.8099  165.4059 F       1  UNL1       -0.1700
@<TRIPOS>BOND
     1    12    13    1
     2    13    14    1
     3    13    15   am
     4    15    16    2
     5    15    11    1
     6    11     9    1
     7     9     8    1
     8     8     7    1
     9     7     1    1
    10     1     2   ar
    11     2     3   ar
    12     3     4   ar
    13     4     5   ar
    14     5    17    1
    15    17    18    1
    16    18    19    1
    17    19    20    1
    18    20    21    1
    19    21    22    1
    20    21    23    1
    21    21    24    1
    22     5     6   ar
    23     6     1   ar
    24     9    10    1
@<TRIPOS>MOLECULE
*****
 24 24 0 0 0
SMALL
GASTEIGER

@<TRIPOS>ATOM
      1 C         144.0883  142.8512  164.5976 C.ar    1  UNL1       -0.0178
      2 C         145.1398  142.0667  163.8705 C.ar    1  UNL1       -0.0040
      3 C         145.2017  140.5757  164.0215 C.ar    1  UNL1        0.0028
      4 C         144.2121  139.8691  164.8998 C.ar    1  UNL1        0.0369
      5 C         143.1605  140.6536  165.6269 C.ar    1  UNL1        0.1382
      6 C         143.0986  142.1447  165.4759 C.ar    1  UNL1        0.0327
      7 C         144.0264  144.3423  164.4466 C.3     1  UNL1        0.0435
      8 C         143.9495  144.9551  163.0796 C.3     1  UNL1        0.0737
      9 N         142.6241  145.0850  162.3894 N.3     1  UNL1       -0.2895
     10 H         142.7211  145.8346  161.7044 H       1  UNL1        0.1237
     11 C         141.3893  145.3842  163.1868 C.3     1  UNL1        0.1552
     12 C         137.6188  144.1482  163.1134 C.3     1  UNL1        0.1149
     13 N         138.9642  144.5642  163.6299 N.am    1  UNL1       -0.2749
     14 C         139.2299  144.5762  165.1062 C.3     1  UNL1        0.1149
     15 C         140.0439  144.9682  162.6703 C.2     1  UNL1        0.2419
     16 O         139.7782  144.9562  161.1940 O.2     1  UNL1       -0.2734
     17 O         142.1708  139.9470  166.5052 O.3     1  UNL1       -0.4755
     18 C         141.8972  140.4578  167.8887 C.3     1  UNL1        0.2057
     19 C         140.6902  141.3097  168.1486 C.3     1  UNL1        0.0561
     20 C         140.8527  142.6843  168.7266 C.3     1  UNL1        0.1072
     21 C         140.0726  143.0829  169.9442 C.3     1  UNL1        0.3979
     22 F         139.2926  143.4815  171.1619 F       1  UNL1       -0.1700
     23 F         140.8486  144.3642  170.0219 F       1  UNL1       -0.1700
     24 F         139.2966  141.8016  169.8665 F       1  UNL1       -0.1700
@<TRIPOS>BOND
     1    12    13    1
     2    13    14    1
     3    13    15   am
     4    15    16    2
     5    15    11    1
     6    11     9    1
     7     9     8    1
     8     8     7    1
     9     7     1    1
    10     1     2   ar
    11     2     3   ar
    12     3     4   ar
    13     4     5   ar
    14     5    17    1
    15    17    18    1
    16    18    19    1
    17    19    20    1
    18    20    21    1
    19    21    22    1
    20    21    23    1
    21    21    24    1
    22     5     6   ar
    23     6     1   ar
    24     9    10    1
@<TRIPOS>MOLECULE
*****
 24 24 0 0 0
SMALL
GASTEIGER

@<TRIPOS>ATOM
      1 C         139.5051  140.1135  165.6294 C.ar    1  UNL1       -0.0178
      2 C         138.2172  139.8017  164.9266 C.ar    1  UNL1       -0.0040
      3 C         137.9851  140.2990  163.5306 C.ar    1  UNL1        0.0028
      4 C         139.0409  141.1081  162.8374 C.ar    1  UNL1        0.0369
      5 C         140.3288  141.4199  163.5402 C.ar    1  UNL1        0.1382
      6 C         140.5610  140.9226  164.9362 C.ar    1  UNL1        0.0327
      7 C         139.7373  139.6163  167.0254 C.3     1  UNL1        0.0435
      8 C         139.5316  140.5353  168.1929 C.3     1  UNL1        0.0737
      9 N         139.3254  139.9686  169.5663 N.3     1  UNL1       -0.2895
     10 H         138.5300  140.4618  169.9720 H       1  UNL1        0.1237
     11 C         140.4329  140.0283  170.5763 C.3     1  UNL1        0.1552
     12 C         142.9323  143.1110  170.5780 C.3     1  UNL1        0.1149
     13 N         142.3072  141.7933  170.2274 N.am    1  UNL1       -0.2749
     14 C         142.9315  140.9228  169.1773 C.3     1  UNL1        0.1149
     15 C         141.0580  141.3461  170.9269 C.2     1  UNL1        0.2419
     16 O         140.4337  142.2166  171.9769 O.2     1  UNL1       -0.2734
     17 O         141.3847  142.2290  162.8470 O.3     1  UNL1       -0.4755
     18 C         141.2626  143.7225  162.7813 C.3     1  UNL1        0.2057
     19 C         140.9709  144.5067  164.0263 C.3     1  UNL1        0.0561
     20 C         139.5986  145.0672  164.2554 C.3     1  UNL1        0.1072
     21 C         138.4673  144.1538  164.6239 C.3     1  UNL1        0.3979
     22 F         137.3360  143.2403  164.9925 F       1  UNL1       -0.1700
     23 F         137.7746  144.4926  163.3374 F       1  UNL1       -0.1700
     24 F         139.1601  143.8149  165.9105 F       1  UNL1       -0.1700
@<TRIPOS>BOND
     1    12    13    1
     2    13    14    1
     3    13    15   am
     4    15    16    2
     5    15    11    1
     6    11     9    1
     7     9     8    1
     8     8     7    1
     9     7     1    1
    10     1     2   ar
    11     2     3   ar
    12     3     4   ar
    13     4     5   ar
    14     5    17    1
    15    17    18    1
    16    18    19    1
    17    19    20    1
    18    20    21    1
    19    21    22    1
    20    21    23    1
    21    21    24    1
    22     5     6   ar
    23     6     1   ar
    24     9    10    1
@<TRIPOS>MOLECULE
*****
 24 24 0 0 0
SMALL
GASTEIGER

@<TRIPOS>ATOM
      1 C         138.2367  140.1387  164.2693 C.ar    1  UNL1       -0.0178
      2 C         138.0313  139.5373  165.6279 C.ar    1  UNL1       -0.0040
      3 C         138.6093  138.1904  165.9471 C.ar    1  UNL1        0.0028
      4 C         139.3927  137.4450  164.9075 C.ar    1  UNL1        0.0369
      5 C         139.5980  138.0465  163.5489 C.ar    1  UNL1        0.1382
      6 C         139.0200  139.3933  163.2297 C.ar    1  UNL1        0.0327
      7 C         137.6587  141.4856  163.9501 C.3     1  UNL1        0.0435
      8 C         137.7846  142.0467  162.5648 C.3     1  UNL1        0.0737
      9 N         137.5275  143.5040  162.3195 N.3     1  UNL1       -0.2895
     10 H         137.9295  143.7246  161.4084 H       1  UNL1        0.1237
     11 C         138.0480  144.5298  163.2823 C.3     1  UNL1        0.1552
     12 C         141.9002  145.4073  163.6571 C.3     1  UNL1        0.1149
     13 N         140.5624  144.7703  163.8906 N.am    1  UNL1       -0.2749
     14 C         140.4012  143.7367  164.9657 C.3     1  UNL1        0.1149
     15 C         139.3858  145.1668  163.0489 C.2     1  UNL1        0.2419
     16 O         139.5470  146.2003  161.9737 O.2     1  UNL1       -0.2734
     17 O         140.3814  137.3011  162.5092 O.3     1  UNL1       -0.4755
     18 C         141.6590  137.8783  161.9760 C.3     1  UNL1        0.2057
     19 C         142.8593  137.9948  162.8681 C.3     1  UNL1        0.0561
     20 C         143.0151  139.1877  163.7639 C.3     1  UNL1        0.1072
     21 C         143.3192  138.9973  165.2203 C.3     1  UNL1        0.3979
     22 F         143.6233  138.8069  166.6768 F       1  UNL1       -0.1700
     23 F         144.0713  140.2950  165.2329 F       1  UNL1       -0.1700
     24 F         142.5670  137.6996  165.2077 F       1  UNL1       -0.1700
@<TRIPOS>BOND
     1    12    13    1
     2    13    14    1
     3    13    15   am
     4    15    16    2
     5    15    11    1
     6    11     9    1
     7     9     8    1
     8     8     7    1
     9     7     1    1
    10     1     2   ar
    11     2     3   ar
    12     3     4   ar
    13     4     5   ar
    14     5    17    1
    15    17    18    1
    16    18    19    1
    17    19    20    1
    18    20    21    1
    19    21    22    1
    20    21    23    1
    21    21    24    1
    22     5     6   ar
    23     6     1   ar
    24     9    10    1
@<TRIPOS>MOLECULE
*****
 24 24 0 0 0
SMALL
GASTEIGER

@<TRIPOS>ATOM
      1 C         139.2515  139.5839  165.4004 C.ar    1  UNL1       -0.0178
      2 C         139.3999  138.2719  164.6889 C.ar    1  UNL1       -0.0040
      3 C         138.7993  138.0851  163.3271 C.ar    1  UNL1        0.0028
      4 C         138.0503  139.2103  162.6769 C.ar    1  UNL1        0.0369
      5 C         137.9020  140.5224  163.3885 C.ar    1  UNL1        0.1382
      6 C         138.5026  140.7092  164.7503 C.ar    1  UNL1        0.0327
      7 C         139.8521  139.7707  166.7622 C.3     1  UNL1        0.0435
      8 C         141.3080  140.1043  166.9005 C.3     1  UNL1        0.0737
      9 N         142.1192  139.4816  167.9979 N.3     1  UNL1       -0.2895
     10 H         141.6035  138.6610  168.3159 H       1  UNL1        0.1237
     11 C         142.4624  140.2785  169.2215 C.3     1  UNL1        0.1552
     12 C         140.5934  143.7364  169.7688 C.3     1  UNL1        0.1149
     13 N         140.8639  142.2614  169.7341 N.am    1  UNL1       -0.2749
     14 C         139.8064  141.2944  170.1774 C.3     1  UNL1        0.1149
     15 C         142.1919  141.7535  169.2562 C.2     1  UNL1        0.2419
     16 O         143.2494  142.7206  168.8128 O.2     1  UNL1       -0.2734
     17 O         137.1530  141.6478  162.7383 O.3     1  UNL1       -0.4755
     18 C         137.8312  142.9657  162.5079 C.3     1  UNL1        0.2057
     19 C         137.5300  144.1309  163.4034 C.3     1  UNL1        0.0561
     20 C         138.3693  144.3767  164.6221 C.3     1  UNL1        0.1072
     21 C         139.8510  144.5665  164.4864 C.3     1  UNL1        0.3979
     22 F         141.3328  144.7563  164.3508 F       1  UNL1       -0.1700
     23 F         139.6236  145.5470  163.3743 F       1  UNL1       -0.1700
     24 F         140.0784  143.5860  165.5985 F       1  UNL1       -0.1700
@<TRIPOS>BOND
     1    12    13    1
     2    13    14    1
     3    13    15   am
     4    15    16    2
     5    15    11    1
     6    11     9    1
     7     9     8    1
     8     8     7    1
     9     7     1    1
    10     1     2   ar
    11     2     3   ar
    12     3     4   ar
    13     4     5   ar
    14     5    17    1
    15    17    18    1
    16    18    19    1
    17    19    20    1
    18    20    21    1
    19    21    22    1
    20    21    23    1
    21    21    24    1
    22     5     6   ar
    23     6     1   ar
    24     9    10    1
@<TRIPOS>MOLECULE
*****
 24 24 0 0 0
SMALL
GASTEIGER

@<TRIPOS>ATOM
      1 C         143.3593  142.5260  164.2554 C.ar    1  UNL1       -0.0178
      2 C         144.8357  142.6470  164.0201 C.ar    1  UNL1       -0.0040
      3 C         145.6795  141.4127  163.8986 C.ar    1  UNL1        0.0028
      4 C         145.0467  140.0575  164.0125 C.ar    1  UNL1        0.0369
      5 C         143.5703  139.9366  164.2478 C.ar    1  UNL1        0.1382
      6 C         142.7266  141.1708  164.3693 C.ar    1  UNL1        0.0327
      7 C         142.5156  143.7603  164.3769 C.3     1  UNL1        0.0435
      8 C         142.7947  144.9484  163.5049 C.3     1  UNL1        0.0737
      9 N         142.8503  144.7883  162.0145 N.3     1  UNL1       -0.2895
     10 H         143.3519  145.5982  161.6499 H       1  UNL1        0.1237
     11 C         141.5803  144.6738  161.2245 C.3     1  UNL1        0.1552
     12 C         138.0366  144.4875  163.0016 C.3     1  UNL1        0.1149
     13 N         139.3401  144.0652  162.3912 N.am    1  UNL1       -0.2749
     14 C         139.7069  142.6116  162.3373 C.3     1  UNL1        0.1149
     15 C         140.2768  145.0962  161.8349 C.2     1  UNL1        0.2419
     16 O         139.9100  146.5497  161.8889 O.2     1  UNL1       -0.2734
     17 O         142.9375  138.5813  164.3616 O.3     1  UNL1       -0.4755
     18 C         141.6969  138.3996  165.1850 C.3     1  UNL1        0.2057
     19 C         140.5800  137.5361  164.6779 C.3     1  UNL1        0.0561
     20 C         139.2092  138.1159  164.4914 C.3     1  UNL1        0.1072
     21 C         138.3564  138.4243  165.6862 C.3     1  UNL1        0.3979
     22 F         137.5036  138.7327  166.8810 F       1  UNL1       -0.1700
     23 F         138.1984  136.9566  165.9522 F       1  UNL1       -0.1700
     24 F         138.5145  139.8920  165.4201 F       1  UNL1       -0.1700
@<TRIPOS>BOND
     1    12    13    1
     2    13    14    1
     3    13    15   am
     4    15    16    2
     5    15    11    1
     6    11     9    1
     7     9     8    1
     8     8     7    1
     9     7     1    1
    10     1     2   ar
    11     2     3   ar
    12     3     4   ar
    13     4     5   ar
    14     5    17    1
    15    17    18    1
    16    18    19    1
    17    19    20    1
    18    20    21    1
    19    21    22    1
    20    21    23    1
    21    21    24    1
    22     5     6   ar
    23     6     1   ar
    24     9    10    1
@<TRIPOS>MOLECULE
*****
 24 24 0 0 0
SMALL
GASTEIGER

@<TRIPOS>ATOM
      1 C         140.2043  137.9540  164.9381 C.ar    1  UNL1       -0.0178
      2 C         138.8083  137.5368  165.2944 C.ar    1  UNL1       -0.0040
      3 C         138.0542  138.2743  166.3610 C.ar    1  UNL1        0.0028
      4 C         138.6962  139.4290  167.0712 C.ar    1  UNL1        0.0369
      5 C         140.0922  139.8462  166.7149 C.ar    1  UNL1        0.1382
      6 C         140.8463  139.1087  165.6483 C.ar    1  UNL1        0.0327
      7 C         140.9583  137.2165  163.8715 C.3     1  UNL1        0.0435
      8 C         142.1928  137.8212  163.2713 C.3     1  UNL1        0.0737
      9 N         142.6048  137.4557  161.8761 N.3     1  UNL1       -0.2895
     10 H         142.6723  136.4383  161.8460 H       1  UNL1        0.1237
     11 C         143.8852  137.9917  161.3074 C.3     1  UNL1        0.1552
     12 C         144.1266  141.7250  159.9831 C.3     1  UNL1        0.1149
     13 N         144.1531  140.5449  160.9087 N.am    1  UNL1       -0.2749
     14 C         144.4740  140.7381  162.3612 C.3     1  UNL1        0.1149
     15 C         143.8587  139.1718  160.3818 C.2     1  UNL1        0.2419
     16 O         143.5378  138.9786  158.9293 O.2     1  UNL1       -0.2734
     17 O         140.7343  141.0009  167.4251 O.3     1  UNL1       -0.4755
     18 C         140.4831  142.4034  166.9561 C.3     1  UNL1        0.2057
     19 C         139.7160  142.6446  165.6898 C.3     1  UNL1        0.0561
     20 C         139.2746  144.0332  165.3333 C.3     1  UNL1        0.1072
     21 C         138.2870  144.2447  164.2243 C.3     1  UNL1        0.3979
     22 F         137.2993  144.4562  163.1153 F       1  UNL1       -0.1700
     23 F         139.1511  145.3345  163.6626 F       1  UNL1       -0.1700
     24 F         137.4229  143.1549  164.7861 F       1  UNL1       -0.1700
@<TRIPOS>BOND
     1    12    13    1
     2    13    14    1
     3    13    15   am
     4    15    16    2
     5    15    11    1
     6    11     9    1
     7     9     8    1
     8     8     7    1
     9     7     1    1
    10     1     2   ar
    11     2     3   ar
    12     3     4   ar
    13     4     5   ar
    14     5    17    1
    15    17    18    1
    16    18    19    1
    17    19    20    1
    18    20    21    1
    19    21    22    1
    20    21    23    1
    21    21    24    1
    22     5     6   ar
    23     6     1   ar
    24     9    10    1
