@<TRIPOS>MOLECULE
*****
 35 39 0 0 0
SMALL
GASTEIGER

@<TRIPOS>ATOM
      1 C         139.2894  139.5699  164.2382 C.ar    1  UNL1        0.0017
      2 C         138.4388  138.7052  165.1207 C.ar    1  UNL1        0.0016
      3 C         138.5430  138.8240  166.6123 C.ar    1  UNL1        0.0192
      4 C         139.4979  139.8074  167.2215 C.ar    1  UNL1        0.0845
      5 N         139.6021  139.9261  168.7132 N.ar    1  UNL1       -0.2240
      6 C         140.5570  140.9095  169.3224 C.ar    1  UNL1        0.1988
      7 N         141.4077  141.7742  168.4398 N.ar    1  UNL1       -0.2240
      8 C         141.3034  141.6555  166.9482 C.ar    1  UNL1        0.0844
      9 C         140.3485  140.6720  166.3390 C.ar    1  UNL1        0.0354
     10 C         140.2443  140.5533  164.8474 C.ar    1  UNL1        0.0030
     11 C         138.9767  139.2137  159.7632 C.ar    1  UNL1        0.2348
     12 N         139.1580  137.9839  160.6026 N.ar    1  UNL1       -0.2096
     13 C         139.2622  138.1026  162.0943 C.ar    1  UNL1        0.1021
     14 C         139.1852  139.4511  162.7465 C.ar    1  UNL1        0.0201
     15 C         139.0039  140.6810  161.9071 C.ar    1  UNL1        0.0165
     16 C         138.8996  140.5623  160.4155 C.ar    1  UNL1        0.1215
     17 C         139.9170  138.3397  157.5045 C.3     1  UNL1        0.2543
     18 O         138.8725  139.0951  158.2716 O.3     1  UNL1       -0.4557
     19 C         138.7183  141.7922  159.5761 C.1     1  UNL1        0.1051
     20 N         138.5370  143.0220  158.7367 N.1     1  UNL1       -0.1907
     21 C         142.1540  142.5201  166.0658 C.ar    1  UNL1        0.0179
     22 C         143.6075  142.7138  166.3817 C.ar    1  UNL1        0.0015
     23 C         144.4582  143.5785  165.4992 C.ar    1  UNL1        0.0002
     24 C         143.8553  144.2495  164.3008 C.ar    1  UNL1        0.0045
     25 C         142.4018  144.0558  163.9848 C.ar    1  UNL1        0.0536
     26 C         141.5512  143.1912  164.8672 C.ar    1  UNL1        0.0060
     27 C         141.7990  144.7268  162.7863 C.2     1  UNL1        0.2491
     28 O         140.8450  145.8702  162.9676 O.2     1  UNL1       -0.2699
     29 N         142.1500  144.2546  161.4066 N.am    1  UNL1       -0.2732
     30 C         143.1040  143.1112  161.2253 C.3     1  UNL1        0.1110
     31 C         143.4550  142.6390  159.8456 C.3     1  UNL1        0.0939
     32 N         142.8522  143.3100  158.6471 N.3     1  UNL1       -0.2686
     33 C         143.2032  142.8377  157.2674 C.3     1  UNL1        0.0897
     34 C         141.8983  144.4533  158.8284 C.3     1  UNL1        0.0939
     35 C         141.5472  144.9256  160.2082 C.3     1  UNL1        0.1110
@<TRIPOS>BOND
     1    17    18    1
     2    18    11    1
     3    11    12   ar
     4    12    13   ar
     5    13    14   ar
     6    14     1    1
     7     1     2   ar
     8     2     3   ar
     9     3     4   ar
    10     4     5   ar
    11     5     6   ar
    12     6     7   ar
    13     7     8   ar
    14     8    21    1
    15    21    22   ar
    16    22    23   ar
    17    23    24   ar
    18    24    25   ar
    19    25    27    1
    20    27    28    2
    21    27    29   am
    22    29    30    1
    23    30    31    1
    24    31    32    1
    25    32    33    1
    26    32    34    1
    27    34    35    1
    28    25    26   ar
    29     8     9   ar
    30     9    10   ar
    31    14    15   ar
    32    15    16   ar
    33    16    19    1
    34    19    20    3
    35    16    11   ar
    36    10     1   ar
    37     9     4   ar
    38    26    21   ar
    39    35    29    1
@<TRIPOS>MOLECULE
*****
 35 39 0 0 0
SMALL
GASTEIGER

@<TRIPOS>ATOM
      1 C         140.1175  142.9834  165.4604 C.ar    1  UNL1        0.0017
      2 C         139.0444  144.0202  165.6134 C.ar    1  UNL1        0.0016
      3 C         138.7626  144.9786  164.4944 C.ar    1  UNL1        0.0192
      4 C         139.5540  144.9002  163.2226 C.ar    1  UNL1        0.0845
      5 N         139.2722  145.8586  162.1036 N.ar    1  UNL1       -0.2240
      6 C         140.0635  145.7802  160.8317 C.ar    1  UNL1        0.1988
      7 N         141.1366  144.7433  160.6788 N.ar    1  UNL1       -0.2240
      8 C         141.4184  143.7849  161.7978 C.ar    1  UNL1        0.0844
      9 C         140.6270  143.8633  163.0696 C.ar    1  UNL1        0.0354
     10 C         140.9088  142.9049  164.1886 C.ar    1  UNL1        0.0030
     11 C         140.9628  140.1081  168.8173 C.ar    1  UNL1        0.2348
     12 N         141.0928  139.6568  167.3927 N.ar    1  UNL1       -0.2096
     13 C         140.8110  140.6153  166.2737 C.ar    1  UNL1        0.1021
     14 C         140.3993  142.0249  166.5794 C.ar    1  UNL1        0.0201
     15 C         140.2693  142.4761  168.0040 C.ar    1  UNL1        0.0165
     16 C         140.5511  141.5178  169.1229 C.ar    1  UNL1        0.1215
     17 C         142.6482  138.6861  170.1910 C.3     1  UNL1        0.2543
     18 O         141.2446  139.1497  169.9362 O.3     1  UNL1       -0.4557
     19 C         140.4211  141.9690  170.5476 C.1     1  UNL1        0.1051
     20 N         140.2912  142.4202  171.9722 N.1     1  UNL1       -0.1907
     21 C         142.4914  142.7480  161.6448 C.ar    1  UNL1        0.0179
     22 C         143.8965  143.0543  162.0714 C.ar    1  UNL1        0.0015
     23 C         144.9696  142.0174  161.9184 C.ar    1  UNL1        0.0002
     24 C         144.6376  140.6743  161.3389 C.ar    1  UNL1        0.0045
     25 C         143.2325  140.3680  160.9124 C.ar    1  UNL1        0.0536
     26 C         142.1594  141.4049  161.0653 C.ar    1  UNL1        0.0060
     27 C         142.9005  139.0248  160.3329 C.2     1  UNL1        0.2491
     28 O         142.4827  137.9015  161.2348 O.2     1  UNL1       -0.2699
     29 N         142.9864  138.8051  158.8516 N.am    1  UNL1       -0.2732
     30 C         143.4043  139.9285  157.9497 C.3     1  UNL1        0.1110
     31 C         143.4902  139.7088  156.4684 C.3     1  UNL1        0.0939
     32 N         143.1582  138.3656  155.8889 N.3     1  UNL1       -0.2686
     33 C         143.2441  138.1459  154.4076 C.3     1  UNL1        0.0897
     34 C         142.7403  137.2422  156.7908 C.3     1  UNL1        0.0939
     35 C         142.6544  137.4620  158.2722 C.3     1  UNL1        0.1110
@<TRIPOS>BOND
     1    17    18    1
     2    18    11    1
     3    11    12   ar
     4    12    13   ar
     5    13    14   ar
     6    14     1    1
     7     1     2   ar
     8     2     3   ar
     9     3     4   ar
    10     4     5   ar
    11     5     6   ar
    12     6     7   ar
    13     7     8   ar
    14     8    21    1
    15    21    22   ar
    16    22    23   ar
    17    23    24   ar
    18    24    25   ar
    19    25    27    1
    20    27    28    2
    21    27    29   am
    22    29    30    1
    23    30    31    1
    24    31    32    1
    25    32    33    1
    26    32    34    1
    27    34    35    1
    28    25    26   ar
    29     8     9   ar
    30     9    10   ar
    31    14    15   ar
    32    15    16   ar
    33    16    19    1
    34    19    20    3
    35    16    11   ar
    36    10     1   ar
    37     9     4   ar
    38    26    21   ar
    39    35    29    1
@<TRIPOS>MOLECULE
*****
 35 39 0 0 0
SMALL
GASTEIGER

@<TRIPOS>ATOM
      1 C         142.8983  139.5997  164.3400 C.ar    1  UNL1        0.0017
      2 C         143.6320  138.6817  165.2721 C.ar    1  UNL1        0.0016
      3 C         143.3302  138.7069  166.7412 C.ar    1  UNL1        0.0192
      4 C         142.2947  139.6500  167.2781 C.ar    1  UNL1        0.0845
      5 N         141.9929  139.6752  168.7473 N.ar    1  UNL1       -0.2240
      6 C         140.9574  140.6183  169.2842 C.ar    1  UNL1        0.1988
      7 N         140.2237  141.5363  168.3519 N.ar    1  UNL1       -0.2240
      8 C         140.5255  141.5111  166.8828 C.ar    1  UNL1        0.0844
      9 C         141.5610  140.5680  166.3459 C.ar    1  UNL1        0.0354
     10 C         141.8628  140.5428  164.8769 C.ar    1  UNL1        0.0030
     11 C         143.8036  139.5243  159.9325 C.ar    1  UNL1        0.2348
     12 N         143.7661  138.2436  160.7125 N.ar    1  UNL1       -0.2096
     13 C         143.4643  138.2687  162.1817 C.ar    1  UNL1        0.1021
     14 C         143.2001  139.5745  162.8708 C.ar    1  UNL1        0.0201
     15 C         143.2376  140.8553  162.0908 C.ar    1  UNL1        0.0165
     16 C         143.5393  140.8302  160.6218 C.ar    1  UNL1        0.1215
     17 C         143.0509  139.0662  157.4885 C.3     1  UNL1        0.2543
     18 O         144.1054  139.4992  158.4635 O.3     1  UNL1       -0.4557
     19 C         143.5768  142.1109  159.8418 C.1     1  UNL1        0.1051
     20 N         143.6143  143.3916  159.0618 N.1     1  UNL1       -0.1907
     21 C         139.7918  142.4291  165.9507 C.ar    1  UNL1        0.0179
     22 C         139.5351  143.8526  166.3477 C.ar    1  UNL1        0.0015
     23 C         138.8014  144.7706  165.4154 C.ar    1  UNL1        0.0002
     24 C         138.3244  144.2650  164.0862 C.ar    1  UNL1        0.0045
     25 C         138.5811  142.8415  163.6892 C.ar    1  UNL1        0.0536
     26 C         139.3148  141.9235  164.6214 C.ar    1  UNL1        0.0060
     27 C         138.1041  142.3360  162.3599 C.2     1  UNL1        0.2491
     28 O         137.0259  141.2950  162.2963 O.2     1  UNL1       -0.2699
     29 N         138.7053  142.8713  161.0942 N.am    1  UNL1       -0.2732
     30 C         139.7835  143.9122  161.1578 C.3     1  UNL1        0.1110
     31 C         140.3847  144.4475  159.8921 C.3     1  UNL1        0.0939
     32 N         139.9077  143.9420  158.5628 N.3     1  UNL1       -0.2686
     33 C         140.5089  144.4773  157.2971 C.3     1  UNL1        0.0897
     34 C         138.8295  142.9011  158.4993 C.3     1  UNL1        0.0939
     35 C         138.2283  142.3657  159.7650 C.3     1  UNL1        0.1110
@<TRIPOS>BOND
     1    17    18    1
     2    18    11    1
     3    11    12   ar
     4    12    13   ar
     5    13    14   ar
     6    14     1    1
     7     1     2   ar
     8     2     3   ar
     9     3     4   ar
    10     4     5   ar
    11     5     6   ar
    12     6     7   ar
    13     7     8   ar
    14     8    21    1
    15    21    22   ar
    16    22    23   ar
    17    23    24   ar
    18    24    25   ar
    19    25    27    1
    20    27    28    2
    21    27    29   am
    22    29    30    1
    23    30    31    1
    24    31    32    1
    25    32    33    1
    26    32    34    1
    27    34    35    1
    28    25    26   ar
    29     8     9   ar
    30     9    10   ar
    31    14    15   ar
    32    15    16   ar
    33    16    19    1
    34    19    20    3
    35    16    11   ar
    36    10     1   ar
    37     9     4   ar
    38    26    21   ar
    39    35    29    1
@<TRIPOS>MOLECULE
*****
 35 39 0 0 0
SMALL
GASTEIGER

@<TRIPOS>ATOM
      1 C         143.3633  142.4988  164.0871 C.ar    1  UNL1        0.0017
      2 C         144.3879  143.3681  164.7539 C.ar    1  UNL1        0.0016
      3 C         144.4758  143.4104  166.2507 C.ar    1  UNL1        0.0192
      4 C         143.5393  142.5834  167.0807 C.ar    1  UNL1        0.0845
      5 N         143.6273  142.6257  168.5776 N.ar    1  UNL1       -0.2240
      6 C         142.6908  141.7987  169.4076 C.ar    1  UNL1        0.1988
      7 N         141.6662  140.9294  168.7408 N.ar    1  UNL1       -0.2240
      8 C         141.5782  140.8871  167.2440 C.ar    1  UNL1        0.0844
      9 C         142.5148  141.7141  166.4139 C.ar    1  UNL1        0.0354
     10 C         142.4268  141.6718  164.9172 C.ar    1  UNL1        0.0030
     11 C         143.0993  142.3717  159.5966 C.ar    1  UNL1        0.2348
     12 N         143.0767  143.6898  160.3122 N.ar    1  UNL1       -0.2096
     13 C         143.1647  143.7321  161.8091 C.ar    1  UNL1        0.1021
     14 C         143.2753  142.4564  162.5903 C.ar    1  UNL1        0.0201
     15 C         143.2979  141.1383  161.8746 C.ar    1  UNL1        0.0165
     16 C         143.2098  141.0959  160.3779 C.ar    1  UNL1        0.1215
     17 C         144.2451  142.5269  157.2701 C.3     1  UNL1        0.2543
     18 O         143.0113  142.3293  158.0998 O.3     1  UNL1       -0.4557
     19 C         143.2324  139.7778  159.6622 C.1     1  UNL1        0.1051
     20 N         143.2550  138.4597  158.9466 N.1     1  UNL1       -0.1907
     21 C         140.5537  140.0178  166.5772 C.ar    1  UNL1        0.0179
     22 C         139.2633  139.7081  167.2765 C.ar    1  UNL1        0.0015
     23 C         138.2387  138.8388  166.6096 C.ar    1  UNL1        0.0002
     24 C         138.5046  138.2791  165.2436 C.ar    1  UNL1        0.0045
     25 C         139.7950  138.5888  164.5444 C.ar    1  UNL1        0.0536
     26 C         140.8195  139.4581  165.2111 C.ar    1  UNL1        0.0060
     27 C         140.0609  138.0290  163.1783 C.2     1  UNL1        0.2491
     28 O         140.8681  136.7739  163.0261 O.2     1  UNL1       -0.2699
     29 N         139.5195  138.7244  161.9645 N.am    1  UNL1       -0.2732
     30 C         138.7123  139.9795  162.1167 C.3     1  UNL1        0.1110
     31 C         138.1710  140.6749  160.9029 C.3     1  UNL1        0.0939
     32 N         138.4369  140.1152  159.5368 N.3     1  UNL1       -0.2686
     33 C         137.8955  140.8106  158.3230 C.3     1  UNL1        0.0897
     34 C         139.2440  138.8601  159.3846 C.3     1  UNL1        0.0939
     35 C         139.7854  138.1647  160.5985 C.3     1  UNL1        0.1110
@<TRIPOS>BOND
     1    17    18    1
     2    18    11    1
     3    11    12   ar
     4    12    13   ar
     5    13    14   ar
     6    14     1    1
     7     1     2   ar
     8     2     3   ar
     9     3     4   ar
    10     4     5   ar
    11     5     6   ar
    12     6     7   ar
    13     7     8   ar
    14     8    21    1
    15    21    22   ar
    16    22    23   ar
    17    23    24   ar
    18    24    25   ar
    19    25    27    1
    20    27    28    2
    21    27    29   am
    22    29    30    1
    23    30    31    1
    24    31    32    1
    25    32    33    1
    26    32    34    1
    27    34    35    1
    28    25    26   ar
    29     8     9   ar
    30     9    10   ar
    31    14    15   ar
    32    15    16   ar
    33    16    19    1
    34    19    20    3
    35    16    11   ar
    36    10     1   ar
    37     9     4   ar
    38    26    21   ar
    39    35    29    1
@<TRIPOS>MOLECULE
*****
 35 39 0 0 0
SMALL
GASTEIGER

@<TRIPOS>ATOM
      1 C         142.5028  139.3958  163.6410 C.ar    1  UNL1        0.0017
      2 C         143.4146  138.7827  164.6620 C.ar    1  UNL1        0.0016
      3 C         143.4097  139.2909  166.0733 C.ar    1  UNL1        0.0192
      4 C         142.4930  140.4122  166.4635 C.ar    1  UNL1        0.0845
      5 N         142.4881  140.9204  167.8748 N.ar    1  UNL1       -0.2240
      6 C         141.5713  142.0417  168.2650 C.ar    1  UNL1        0.1988
      7 N         140.6595  142.6548  167.2438 N.ar    1  UNL1       -0.2240
      8 C         140.6644  142.1466  165.8326 C.ar    1  UNL1        0.0844
      9 C         141.5811  141.0253  165.4424 C.ar    1  UNL1        0.0354
     10 C         141.5860  140.5171  164.0311 C.ar    1  UNL1        0.0030
     11 C         142.5174  137.8712  159.4070 C.ar    1  UNL1        0.2348
     12 N         143.6869  137.5994  160.3061 N.ar    1  UNL1       -0.2096
     13 C         143.6820  138.1076  161.7174 C.ar    1  UNL1        0.1021
     14 C         142.5077  138.8876  162.2296 C.ar    1  UNL1        0.0201
     15 C         141.3381  139.1594  161.3306 C.ar    1  UNL1        0.0165
     16 C         141.3430  138.6512  159.9193 C.ar    1  UNL1        0.1215
     17 C         143.0550  138.2253  156.8901 C.3     1  UNL1        0.2543
     18 O         142.5222  137.3630  157.9958 O.3     1  UNL1       -0.4557
     19 C         140.1734  138.9231  159.0203 C.1     1  UNL1        0.1051
     20 N         139.0039  139.1949  158.1212 N.1     1  UNL1       -0.1907
     21 C         139.7525  142.7597  164.8115 C.ar    1  UNL1        0.0179
     22 C         138.2814  142.4694  164.8491 C.ar    1  UNL1        0.0015
     23 C         137.3695  143.0825  163.8280 C.ar    1  UNL1        0.0002
     24 C         137.9289  143.9860  162.7693 C.ar    1  UNL1        0.0045
     25 C         139.4000  144.2763  162.7316 C.ar    1  UNL1        0.0536
     26 C         140.3118  143.6632  163.7527 C.ar    1  UNL1        0.0060
     27 C         139.9593  145.1798  161.6728 C.2     1  UNL1        0.2491
     28 O         139.9049  146.6681  161.8516 O.2     1  UNL1       -0.2699
     29 N         140.5730  144.5949  160.4354 N.am    1  UNL1       -0.2732
     30 C         140.6274  143.1066  160.2567 C.3     1  UNL1        0.1110
     31 C         141.2411  142.5218  159.0192 C.3     1  UNL1        0.0939
     32 N         141.8004  143.4252  157.9604 N.3     1  UNL1       -0.2686
     33 C         142.4141  142.8404  156.7230 C.3     1  UNL1        0.0897
     34 C         141.7460  144.9136  158.1392 C.3     1  UNL1        0.0939
     35 C         141.1323  145.4984  159.3767 C.3     1  UNL1        0.1110
@<TRIPOS>BOND
     1    17    18    1
     2    18    11    1
     3    11    12   ar
     4    12    13   ar
     5    13    14   ar
     6    14     1    1
     7     1     2   ar
     8     2     3   ar
     9     3     4   ar
    10     4     5   ar
    11     5     6   ar
    12     6     7   ar
    13     7     8   ar
    14     8    21    1
    15    21    22   ar
    16    22    23   ar
    17    23    24   ar
    18    24    25   ar
    19    25    27    1
    20    27    28    2
    21    27    29   am
    22    29    30    1
    23    30    31    1
    24    31    32    1
    25    32    33    1
    26    32    34    1
    27    34    35    1
    28    25    26   ar
    29     8     9   ar
    30     9    10   ar
    31    14    15   ar
    32    15    16   ar
    33    16    19    1
    34    19    20    3
    35    16    11   ar
    36    10     1   ar
    37     9     4   ar
    38    26    21   ar
    39    35    29    1
@<TRIPOS>MOLECULE
*****
 35 39 0 0 0
SMALL
GASTEIGER

@<TRIPOS>ATOM
      1 C         140.6618  143.3080  165.4674 C.ar    1  UNL1        0.0017
      2 C         139.4186  144.1016  165.7409 C.ar    1  UNL1        0.0016
      3 C         138.8155  144.9474  164.6589 C.ar    1  UNL1        0.0192
      4 C         139.4556  144.9996  163.3033 C.ar    1  UNL1        0.0845
      5 N         138.8524  145.8455  162.2212 N.ar    1  UNL1       -0.2240
      6 C         139.4924  145.8978  160.8657 C.ar    1  UNL1        0.1988
      7 N         140.7357  145.1042  160.5921 N.ar    1  UNL1       -0.2240
      8 C         141.3388  144.2584  161.6742 C.ar    1  UNL1        0.0844
      9 C         140.6987  144.2061  163.0298 C.ar    1  UNL1        0.0354
     10 C         141.3018  143.3603  164.1118 C.ar    1  UNL1        0.0030
     11 C         142.4712  140.7705  168.7135 C.ar    1  UNL1        0.2348
     12 N         142.9027  140.5857  167.2889 N.ar    1  UNL1       -0.2096
     13 C         142.2995  141.4316  166.2068 C.ar    1  UNL1        0.1021
     14 C         141.2649  142.4622  166.5494 C.ar    1  UNL1        0.0201
     15 C         140.8334  142.6470  167.9741 C.ar    1  UNL1        0.0165
     16 C         141.4366  141.8012  169.0561 C.ar    1  UNL1        0.1215
     17 C         142.5519  138.5410  170.0447 C.3     1  UNL1        0.2543
     18 O         143.0743  139.9247  169.7956 O.3     1  UNL1       -0.4557
     19 C         141.0051  141.9860  170.4808 C.1     1  UNL1        0.1051
     20 N         140.5736  142.1708  171.9055 N.1     1  UNL1       -0.1907
     21 C         142.5819  143.4649  161.4006 C.ar    1  UNL1        0.0179
     22 C         143.7997  143.6608  162.2542 C.ar    1  UNL1        0.0015
     23 C         145.0429  142.8672  161.9805 C.ar    1  UNL1        0.0002
     24 C         145.0682  141.8778  160.8535 C.ar    1  UNL1        0.0045
     25 C         143.8504  141.6819  159.9999 C.ar    1  UNL1        0.0536
     26 C         142.6073  142.4754  160.2735 C.ar    1  UNL1        0.0060
     27 C         143.8758  140.6924  158.8728 C.2     1  UNL1        0.2491
     28 O         143.0845  139.4220  158.9722 O.2     1  UNL1       -0.2699
     29 N         144.6924  140.9734  157.6464 N.am    1  UNL1       -0.2732
     30 C         145.4837  142.2438  157.5470 C.3     1  UNL1        0.1110
     31 C         146.3003  142.5248  156.3206 C.3     1  UNL1        0.0939
     32 N         146.3256  141.5353  155.1935 N.3     1  UNL1       -0.2686
     33 C         147.1422  141.8163  153.9670 C.3     1  UNL1        0.0897
     34 C         145.5344  140.2649  155.2928 C.3     1  UNL1        0.0939
     35 C         144.7177  139.9839  156.5193 C.3     1  UNL1        0.1110
@<TRIPOS>BOND
     1    17    18    1
     2    18    11    1
     3    11    12   ar
     4    12    13   ar
     5    13    14   ar
     6    14     1    1
     7     1     2   ar
     8     2     3   ar
     9     3     4   ar
    10     4     5   ar
    11     5     6   ar
    12     6     7   ar
    13     7     8   ar
    14     8    21    1
    15    21    22   ar
    16    22    23   ar
    17    23    24   ar
    18    24    25   ar
    19    25    27    1
    20    27    28    2
    21    27    29   am
    22    29    30    1
    23    30    31    1
    24    31    32    1
    25    32    33    1
    26    32    34    1
    27    34    35    1
    28    25    26   ar
    29     8     9   ar
    30     9    10   ar
    31    14    15   ar
    32    15    16   ar
    33    16    19    1
    34    19    20    3
    35    16    11   ar
    36    10     1   ar
    37     9     4   ar
    38    26    21   ar
    39    35    29    1
@<TRIPOS>MOLECULE
*****
 35 39 0 0 0
SMALL
GASTEIGER

@<TRIPOS>ATOM
      1 C         140.5006  143.0823  165.3025 C.ar    1  UNL1        0.0017
      2 C         139.2493  143.8510  165.6078 C.ar    1  UNL1        0.0016
      3 C         138.7002  144.8196  164.6027 C.ar    1  UNL1        0.0192
      4 C         139.4024  145.0195  163.2924 C.ar    1  UNL1        0.0845
      5 N         138.8532  145.9882  162.2873 N.ar    1  UNL1       -0.2240
      6 C         139.5555  146.1881  160.9770 C.ar    1  UNL1        0.1988
      7 N         140.8068  145.4193  160.6718 N.ar    1  UNL1       -0.2240
      8 C         141.3559  144.4507  161.6768 C.ar    1  UNL1        0.0844
      9 C         140.6537  144.2508  162.9872 C.ar    1  UNL1        0.0354
     10 C         141.2028  143.2822  163.9922 C.ar    1  UNL1        0.0030
     11 C         142.1480  140.1763  168.3178 C.ar    1  UNL1        0.2348
     12 N         143.0038  140.6376  167.1755 N.ar    1  UNL1       -0.2096
     13 C         142.4546  141.6062  166.1704 C.ar    1  UNL1        0.1021
     14 C         141.0497  142.1136  166.3076 C.ar    1  UNL1        0.0201
     15 C         140.1940  141.6523  167.4500 C.ar    1  UNL1        0.0165
     16 C         140.7431  140.6837  168.4550 C.ar    1  UNL1        0.1215
     17 C         143.1781  139.7013  170.6551 C.3     1  UNL1        0.2543
     18 O         142.6971  139.2077  169.3229 O.3     1  UNL1       -0.4557
     19 C         139.8873  140.2225  169.5974 C.1     1  UNL1        0.1051
     20 N         139.0315  139.7612  170.7397 N.1     1  UNL1       -0.1907
     21 C         142.6072  143.6820  161.3716 C.ar    1  UNL1        0.0179
     22 C         143.6227  143.4434  162.4495 C.ar    1  UNL1        0.0015
     23 C         144.8740  142.6746  162.1442 C.ar    1  UNL1        0.0002
     24 C         145.1099  142.1444  160.7610 C.ar    1  UNL1        0.0045
     25 C         144.0945  142.3830  159.6831 C.ar    1  UNL1        0.0536
     26 C         142.8432  143.1518  159.9883 C.ar    1  UNL1        0.0060
     27 C         144.3304  141.8529  158.2998 C.2     1  UNL1        0.2491
     28 O         144.9963  142.7158  157.2694 O.2     1  UNL1       -0.2699
     29 N         143.9005  140.4598  157.9471 N.am    1  UNL1       -0.2732
     30 C         143.2346  139.5968  158.9776 C.3     1  UNL1        0.1110
     31 C         142.8046  138.2038  158.6249 C.3     1  UNL1        0.0939
     32 N         143.0406  137.6736  157.2416 N.3     1  UNL1       -0.2686
     33 C         142.6106  136.2805  156.8889 C.3     1  UNL1        0.0897
     34 C         143.7065  138.5365  156.2112 C.3     1  UNL1        0.0939
     35 C         144.1364  139.9297  156.5639 C.3     1  UNL1        0.1110
@<TRIPOS>BOND
     1    17    18    1
     2    18    11    1
     3    11    12   ar
     4    12    13   ar
     5    13    14   ar
     6    14     1    1
     7     1     2   ar
     8     2     3   ar
     9     3     4   ar
    10     4     5   ar
    11     5     6   ar
    12     6     7   ar
    13     7     8   ar
    14     8    21    1
    15    21    22   ar
    16    22    23   ar
    17    23    24   ar
    18    24    25   ar
    19    25    27    1
    20    27    28    2
    21    27    29   am
    22    29    30    1
    23    30    31    1
    24    31    32    1
    25    32    33    1
    26    32    34    1
    27    34    35    1
    28    25    26   ar
    29     8     9   ar
    30     9    10   ar
    31    14    15   ar
    32    15    16   ar
    33    16    19    1
    34    19    20    3
    35    16    11   ar
    36    10     1   ar
    37     9     4   ar
    38    26    21   ar
    39    35    29    1
@<TRIPOS>MOLECULE
*****
 35 39 0 0 0
SMALL
GASTEIGER

@<TRIPOS>ATOM
      1 C         142.8343  139.4527  164.2809 C.ar    1  UNL1        0.0017
      2 C         143.4366  138.4802  165.2511 C.ar    1  UNL1        0.0016
      3 C         143.2976  138.7098  166.7269 C.ar    1  UNL1        0.0192
      4 C         142.5565  139.9119  167.2324 C.ar    1  UNL1        0.0845
      5 N         142.4176  140.1415  168.7082 N.ar    1  UNL1       -0.2240
      6 C         141.6764  141.3437  169.2137 C.ar    1  UNL1        0.1988
      7 N         141.0741  142.3162  168.2434 N.ar    1  UNL1       -0.2240
      8 C         141.2130  142.0866  166.7676 C.ar    1  UNL1        0.0844
      9 C         141.9542  140.8844  166.2621 C.ar    1  UNL1        0.0354
     10 C         142.0931  140.6548  164.7864 C.ar    1  UNL1        0.0030
     11 C         143.2509  138.7639  159.8534 C.ar    1  UNL1        0.2348
     12 N         142.8498  137.6333  160.7538 N.ar    1  UNL1       -0.2096
     13 C         142.7109  137.8629  162.2296 C.ar    1  UNL1        0.1021
     14 C         142.9732  139.2231  162.8050 C.ar    1  UNL1        0.0201
     15 C         143.3743  140.3537  161.9046 C.ar    1  UNL1        0.0165
     16 C         143.5131  140.1242  160.4288 C.ar    1  UNL1        0.1215
     17 C         142.6864  137.3793  157.7288 C.3     1  UNL1        0.2543
     18 O         143.3898  138.5344  158.3776 O.3     1  UNL1       -0.4557
     19 C         143.9142  141.2548  159.5284 C.1     1  UNL1        0.1051
     20 N         144.3153  142.3855  158.6280 N.1     1  UNL1       -0.1907
     21 C         140.6107  143.0591  165.7974 C.ar    1  UNL1        0.0179
     22 C         139.4077  143.8638  166.1913 C.ar    1  UNL1        0.0015
     23 C         138.8054  144.8364  165.2209 C.ar    1  UNL1        0.0002
     24 C         139.4061  145.0041  163.8568 C.ar    1  UNL1        0.0045
     25 C         140.6091  144.1993  163.4629 C.ar    1  UNL1        0.0536
     26 C         141.2114  143.2268  164.4331 C.ar    1  UNL1        0.0060
     27 C         141.2098  144.3671  162.0986 C.2     1  UNL1        0.2491
     28 O         142.5103  145.0968  161.9363 O.2     1  UNL1       -0.2699
     29 N         140.5100  143.8052  160.8967 N.am    1  UNL1       -0.2732
     30 C         139.2096  143.0755  161.0590 C.3     1  UNL1        0.1110
     31 C         138.5098  142.5136  159.8572 C.3     1  UNL1        0.0939
     32 N         139.1105  142.6813  158.4929 N.3     1  UNL1       -0.2686
     33 C         138.4107  142.1194  157.2910 C.3     1  UNL1        0.0897
     34 C         140.4110  143.4110  158.3306 C.3     1  UNL1        0.0939
     35 C         141.1107  143.9729  159.5326 C.3     1  UNL1        0.1110
@<TRIPOS>BOND
     1    17    18    1
     2    18    11    1
     3    11    12   ar
     4    12    13   ar
     5    13    14   ar
     6    14     1    1
     7     1     2   ar
     8     2     3   ar
     9     3     4   ar
    10     4     5   ar
    11     5     6   ar
    12     6     7   ar
    13     7     8   ar
    14     8    21    1
    15    21    22   ar
    16    22    23   ar
    17    23    24   ar
    18    24    25   ar
    19    25    27    1
    20    27    28    2
    21    27    29   am
    22    29    30    1
    23    30    31    1
    24    31    32    1
    25    32    33    1
    26    32    34    1
    27    34    35    1
    28    25    26   ar
    29     8     9   ar
    30     9    10   ar
    31    14    15   ar
    32    15    16   ar
    33    16    19    1
    34    19    20    3
    35    16    11   ar
    36    10     1   ar
    37     9     4   ar
    38    26    21   ar
    39    35    29    1
@<TRIPOS>MOLECULE
*****
 35 39 0 0 0
SMALL
GASTEIGER

@<TRIPOS>ATOM
      1 C         141.0785  139.2048  165.2097 C.ar    1  UNL1        0.0017
      2 C         140.9610  137.7219  165.0169 C.ar    1  UNL1        0.0016
      3 C         141.1987  137.1205  163.6634 C.ar    1  UNL1        0.0192
      4 C         141.5537  138.0020  162.5029 C.ar    1  UNL1        0.0845
      5 N         141.7913  137.4005  161.1494 N.ar    1  UNL1       -0.2240
      6 C         142.1464  138.2820  159.9888 C.ar    1  UNL1        0.1988
      7 N         142.2638  139.7649  160.1817 N.ar    1  UNL1       -0.2240
      8 C         142.0262  140.3664  161.5351 C.ar    1  UNL1        0.0844
      9 C         141.6711  139.4849  162.6957 C.ar    1  UNL1        0.0354
     10 C         141.4335  140.0863  164.0491 C.ar    1  UNL1        0.0030
     11 C         140.3656  141.0093  169.2701 C.ar    1  UNL1        0.2348
     12 N         139.2825  140.2158  168.6013 N.ar    1  UNL1       -0.2096
     13 C         139.5201  139.6143  167.2478 C.ar    1  UNL1        0.1021
     14 C         140.8408  139.8063  166.5632 C.ar    1  UNL1        0.0201
     15 C         141.9240  140.5998  167.2319 C.ar    1  UNL1        0.0165
     16 C         141.6864  141.2012  168.5853 C.ar    1  UNL1        0.1215
     17 C         139.7100  143.0463  170.7433 C.3     1  UNL1        0.2543
     18 O         140.1281  141.6107  170.6235 O.3     1  UNL1       -0.4557
     19 C         142.7696  141.9947  169.2541 C.1     1  UNL1        0.1051
     20 N         143.8527  142.7882  169.9228 N.1     1  UNL1       -0.1907
     21 C         142.1436  141.8492  161.7280 C.ar    1  UNL1        0.0179
     22 C         143.0663  142.3986  162.7752 C.ar    1  UNL1        0.0015
     23 C         143.1837  143.8816  162.9680 C.ar    1  UNL1        0.0002
     24 C         142.3784  144.8151  162.1136 C.ar    1  UNL1        0.0045
     25 C         141.4557  144.2657  161.0664 C.ar    1  UNL1        0.0536
     26 C         141.3383  142.7828  160.8735 C.ar    1  UNL1        0.0060
     27 C         140.6504  145.1992  160.2119 C.2     1  UNL1        0.2491
     28 O         139.5737  146.0412  160.8299 O.2     1  UNL1       -0.2699
     29 N         140.9217  145.2908  158.7395 N.am    1  UNL1       -0.2732
     30 C         141.9983  144.4488  158.1215 C.3     1  UNL1        0.1110
     31 C         142.2696  144.5404  156.6491 C.3     1  UNL1        0.0939
     32 N         141.4643  145.4739  155.7947 N.3     1  UNL1       -0.2686
     33 C         141.7356  145.5655  154.3223 C.3     1  UNL1        0.0897
     34 C         140.3877  146.3159  156.4127 C.3     1  UNL1        0.0939
     35 C         140.1164  146.2243  157.8852 C.3     1  UNL1        0.1110
@<TRIPOS>BOND
     1    17    18    1
     2    18    11    1
     3    11    12   ar
     4    12    13   ar
     5    13    14   ar
     6    14     1    1
     7     1     2   ar
     8     2     3   ar
     9     3     4   ar
    10     4     5   ar
    11     5     6   ar
    12     6     7   ar
    13     7     8   ar
    14     8    21    1
    15    21    22   ar
    16    22    23   ar
    17    23    24   ar
    18    24    25   ar
    19    25    27    1
    20    27    28    2
    21    27    29   am
    22    29    30    1
    23    30    31    1
    24    31    32    1
    25    32    33    1
    26    32    34    1
    27    34    35    1
    28    25    26   ar
    29     8     9   ar
    30     9    10   ar
    31    14    15   ar
    32    15    16   ar
    33    16    19    1
    34    19    20    3
    35    16    11   ar
    36    10     1   ar
    37     9     4   ar
    38    26    21   ar
    39    35    29    1
