@<TRIPOS>MOLECULE
*****
 31 35 0 0 0
SMALL
GASTEIGER

@<TRIPOS>ATOM
      1 C         142.4153  138.5090  158.0078 C.3     1  UNL1        0.0181
      2 C         143.1409  139.7176  158.5206 C.3     1  UNL1        0.0036
      3 C         143.7771  140.8198  159.3146 C.3     1  UNL1        0.0227
      4 C         143.5010  140.5641  160.7666 C.3     1  UNL1        0.0870
      5 C         142.6942  139.3039  160.8701 C.3     1  UNL1        0.0227
      6 C         142.4716  138.7807  159.4820 C.3     1  UNL1        0.0036
      7 N         143.9525  141.4187  161.9137 N.ar    1  UNL1       -0.3096
      8 C         145.1215  141.1426  162.8122 C.ar    1  UNL1        0.1800
      9 N         145.2057  142.2527  163.8175 N.ar    1  UNL1       -0.2049
     10 C         144.0887  143.2147  163.5404 C.ar    1  UNL1        0.1799
     11 N         143.6768  144.4935  164.2075 N.ar    1  UNL1       -0.2231
     12 C         142.4904  145.2568  163.6980 C.ar    1  UNL1        0.1109
     13 C         141.7159  144.7414  162.5213 C.ar    1  UNL1        0.0891
     14 C         142.1278  143.4626  161.8543 C.ar    1  UNL1        0.0322
     15 C         143.3142  142.6993  162.3638 C.ar    1  UNL1        0.0980
     16 C         140.5294  145.5048  162.0118 C.1     1  UNL1        0.1020
     17 N         139.3430  146.2682  161.5023 N.1     1  UNL1       -0.1908
     18 C         141.9638  137.6545  156.8608 C.3     1  UNL1        0.0718
     19 N         142.2076  136.1747  156.8865 N.am    1  UNL1       -0.3025
     20 C         143.4793  135.6142  156.3221 C.2     1  UNL1        0.2458
     21 O         144.5073  136.5335  155.7320 O.2     1  UNL1       -0.2701
     22 H         141.5329  135.5713  157.2738 H       1  UNL1        0.1497
     23 C         143.7231  134.1342  156.3478 C.ar    1  UNL1        0.0534
     24 C         144.3443  133.4974  157.5554 C.ar    1  UNL1        0.0054
     25 C         144.5881  132.0175  157.5811 C.ar    1  UNL1        0.0115
     26 C         144.2107  131.1746  156.3991 C.ar    1  UNL1        0.0577
     27 CL        144.4545  129.6948  156.4249 Cl      1  UNL1       -0.0822
     28 C         143.5895  131.8115  155.1915 C.ar    1  UNL1        0.0115
     29 C         143.3457  133.2913  155.1657 C.ar    1  UNL1        0.0054
     30 C         140.9106  137.4437  154.4951 C.3     1  UNL1        0.0017
     31 C         141.2685  138.2797  155.6879 C.3     1  UNL1        0.0196
@<TRIPOS>BOND
     1    30    31    1
     2    31    18    1
     3    18    19    1
     4    19    20   am
     5    20    21    2
     6    20    23    1
     7    23    24   ar
     8    24    25   ar
     9    25    26   ar
    10    26    27    1
    11    26    28   ar
    12    28    29   ar
    13     1    18    1
    14     1     2    1
    15     2     3    1
    16     3     4    1
    17     4     7    1
    18     7     8   ar
    19     8     9   ar
    20     9    10   ar
    21    10    11   ar
    22    11    12   ar
    23    12    13   ar
    24    13    16    1
    25    16    17    3
    26    13    14   ar
    27    14    15   ar
    28     4     5    1
    29     6     5    1
    30    29    23   ar
    31     6     1    1
    32     6     2    1
    33    15     7   ar
    34    15    10   ar
    35    19    22    1
@<TRIPOS>MOLECULE
*****
 31 35 0 0 0
SMALL
GASTEIGER

@<TRIPOS>ATOM
      1 C         140.3603  145.1182  158.4195 C.3     1  UNL1        0.0181
      2 C         140.2696  145.6152  159.8320 C.3     1  UNL1        0.0036
      3 C         140.1579  145.8072  161.3154 C.3     1  UNL1        0.0227
      4 C         140.0384  144.4536  161.9505 C.3     1  UNL1        0.0870
      5 C         140.0763  143.4248  160.8596 C.3     1  UNL1        0.0227
      6 C         140.2191  144.1427  159.5503 C.3     1  UNL1        0.0036
      7 N         139.9046  144.1773  163.4188 N.ar    1  UNL1       -0.3096
      8 C         138.8297  144.7066  164.3212 C.ar    1  UNL1        0.1800
      9 N         139.0830  144.1795  165.7025 N.ar    1  UNL1       -0.2049
     10 C         140.3144  143.3244  165.6537 C.ar    1  UNL1        0.1799
     11 N         141.0389  142.5468  166.7122 N.ar    1  UNL1       -0.2231
     12 C         142.2713  141.7679  166.3593 C.ar    1  UNL1        0.1109
     13 C         142.7790  141.7665  164.9478 C.ar    1  UNL1        0.0891
     14 C         142.0545  142.5441  163.8893 C.ar    1  UNL1        0.0322
     15 C         140.8222  143.3230  164.2423 C.ar    1  UNL1        0.0980
     16 C         144.0114  140.9875  164.5949 C.1     1  UNL1        0.1020
     17 N         145.2437  140.2085  164.2420 N.1     1  UNL1       -0.1908
     18 C         140.4941  145.3945  156.9514 C.3     1  UNL1        0.0718
     19 N         140.4288  146.8048  156.4446 N.am    1  UNL1       -0.3025
     20 C         139.2541  147.2545  155.6274 C.2     1  UNL1        0.2458
     21 O         138.1447  146.2939  155.3169 O.2     1  UNL1       -0.2701
     22 H         141.1570  147.4353  156.6484 H       1  UNL1        0.1497
     23 C         139.1889  148.6649  155.1206 C.ar    1  UNL1        0.0534
     24 C         138.5547  149.7346  155.9593 C.ar    1  UNL1        0.0054
     25 C         138.4894  151.1449  155.4525 C.ar    1  UNL1        0.0115
     26 C         139.0584  151.4854  154.1071 C.ar    1  UNL1        0.0577
     27 CL        138.9931  152.8957  153.6003 Cl      1  UNL1       -0.0822
     28 C         139.6926  150.4157  153.2683 C.ar    1  UNL1        0.0115
     29 C         139.7578  149.0054  153.7751 C.ar    1  UNL1        0.0054
     30 C         141.4796  144.4743  154.7306 C.3     1  UNL1        0.0017
     31 C         140.6932  144.2605  155.9898 C.3     1  UNL1        0.0196
@<TRIPOS>BOND
     1    30    31    1
     2    31    18    1
     3    18    19    1
     4    19    20   am
     5    20    21    2
     6    20    23    1
     7    23    24   ar
     8    24    25   ar
     9    25    26   ar
    10    26    27    1
    11    26    28   ar
    12    28    29   ar
    13     1    18    1
    14     1     2    1
    15     2     3    1
    16     3     4    1
    17     4     7    1
    18     7     8   ar
    19     8     9   ar
    20     9    10   ar
    21    10    11   ar
    22    11    12   ar
    23    12    13   ar
    24    13    16    1
    25    16    17    3
    26    13    14   ar
    27    14    15   ar
    28     4     5    1
    29     6     5    1
    30    29    23   ar
    31     6     1    1
    32     6     2    1
    33    15     7   ar
    34    15    10   ar
    35    19    22    1
@<TRIPOS>MOLECULE
*****
 31 35 0 0 0
SMALL
GASTEIGER

@<TRIPOS>ATOM
      1 C         141.0437  143.6410  162.3153 C.3     1  UNL1        0.0181
      2 C         140.8135  143.6178  163.7974 C.3     1  UNL1        0.0036
      3 C         140.5688  143.2839  165.2391 C.3     1  UNL1        0.0227
      4 C         140.4515  141.7931  165.3563 C.3     1  UNL1        0.0870
      5 C         140.6237  141.2056  163.9869 C.3     1  UNL1        0.0227
      6 C         140.8474  142.3333  163.0235 C.3     1  UNL1        0.0036
      7 N         140.2052  141.0247  166.6208 N.ar    1  UNL1       -0.3096
      8 C         139.0893  140.0508  166.8575 C.ar    1  UNL1        0.1800
      9 N         139.2261  139.5195  168.2535 N.ar    1  UNL1       -0.2049
     10 C         140.4266  140.1650  168.8796 C.ar    1  UNL1        0.1799
     11 N         141.0469  140.0260  170.2382 N.ar    1  UNL1       -0.2231
     12 C         142.2723  140.8172  170.5877 C.ar    1  UNL1        0.1109
     13 C         142.8775  141.7475  169.5786 C.ar    1  UNL1        0.0891
     14 C         142.2572  141.8866  168.2200 C.ar    1  UNL1        0.0322
     15 C         141.0318  141.0953  167.8705 C.ar    1  UNL1        0.0980
     16 C         144.1030  142.5387  169.9282 C.1     1  UNL1        0.1020
     17 N         145.3285  143.3299  170.2777 N.1     1  UNL1       -0.1908
     18 C         141.2900  144.4094  161.0509 C.3     1  UNL1        0.0718
     19 N         142.4559  144.0583  160.1749 N.am    1  UNL1       -0.3025
     20 C         142.2549  143.1820  158.9742 C.2     1  UNL1        0.2458
     21 O         140.8879  142.6568  158.6494 O.2     1  UNL1       -0.2701
     22 H         143.3531  144.4031  160.3880 H       1  UNL1        0.1497
     23 C         143.4209  142.8310  158.0982 C.ar    1  UNL1        0.0534
     24 C         143.2062  142.5508  156.6404 C.ar    1  UNL1        0.0054
     25 C         144.3721  142.1998  155.7644 C.ar    1  UNL1        0.0115
     26 C         145.7528  142.1289  156.3463 C.ar    1  UNL1        0.0577
     27 CL        146.9187  141.7779  155.4703 Cl      1  UNL1       -0.0822
     28 C         145.9676  142.4091  157.8042 C.ar    1  UNL1        0.0115
     29 C         144.8016  142.7602  158.6801 C.ar    1  UNL1        0.0054
     30 C         139.6501  146.3097  161.7212 C.3     1  UNL1        0.0017
     31 C         140.3703  145.5289  160.6623 C.3     1  UNL1        0.0196
@<TRIPOS>BOND
     1    30    31    1
     2    31    18    1
     3    18    19    1
     4    19    20   am
     5    20    21    2
     6    20    23    1
     7    23    24   ar
     8    24    25   ar
     9    25    26   ar
    10    26    27    1
    11    26    28   ar
    12    28    29   ar
    13     1    18    1
    14     1     2    1
    15     2     3    1
    16     3     4    1
    17     4     7    1
    18     7     8   ar
    19     8     9   ar
    20     9    10   ar
    21    10    11   ar
    22    11    12   ar
    23    12    13   ar
    24    13    16    1
    25    16    17    3
    26    13    14   ar
    27    14    15   ar
    28     4     5    1
    29     6     5    1
    30    29    23   ar
    31     6     1    1
    32     6     2    1
    33    15     7   ar
    34    15    10   ar
    35    19    22    1
@<TRIPOS>MOLECULE
*****
 31 35 0 0 0
SMALL
GASTEIGER

@<TRIPOS>ATOM
      1 C         143.2479  139.9841  161.7868 C.3     1  UNL1        0.0181
      2 C         142.2751  139.1283  161.0309 C.3     1  UNL1        0.0036
      3 C         141.4849  138.3398  160.0289 C.3     1  UNL1        0.0227
      4 C         142.1543  138.4828  158.6943 C.3     1  UNL1        0.0870
      5 C         143.3583  139.3597  158.8713 C.3     1  UNL1        0.0227
      6 C         143.4330  139.7586  160.3153 C.3     1  UNL1        0.0036
      7 N         141.6996  137.8586  157.4084 N.ar    1  UNL1       -0.3096
      8 C         140.7389  138.4617  156.4268 C.ar    1  UNL1        0.1800
      9 N         140.5714  137.4974  155.2901 N.ar    1  UNL1       -0.2049
     10 C         141.4284  136.2984  155.5691 C.ar    1  UNL1        0.1799
     11 N         141.6640  135.0323  154.8002 N.ar    1  UNL1       -0.2231
     12 C         142.5969  133.9893  155.3405 C.ar    1  UNL1        0.1109
     13 C         143.2941  134.2125  156.6497 C.ar    1  UNL1        0.0891
     14 C         143.0586  135.4787  157.4186 C.ar    1  UNL1        0.0322
     15 C         142.1257  136.5216  156.8783 C.ar    1  UNL1        0.0980
     16 C         144.2270  133.1694  157.1899 C.1     1  UNL1        0.1020
     17 N         145.1599  132.1264  157.7301 N.1     1  UNL1       -0.1908
     18 C         143.7026  140.6083  163.0726 C.3     1  UNL1        0.0718
     19 N         142.7428  140.7543  164.2160 N.am    1  UNL1       -0.3025
     20 C         142.6732  139.6959  165.2766 C.2     1  UNL1        0.2458
     21 O         143.5634  138.4915  165.1938 O.2     1  UNL1       -0.2701
     22 H         142.1586  141.5449  164.2704 H       1  UNL1        0.1497
     23 C         141.7134  139.8420  166.4201 C.ar    1  UNL1        0.0534
     24 C         140.2411  139.6720  166.1898 C.ar    1  UNL1        0.0054
     25 C         139.2812  139.8180  167.3332 C.ar    1  UNL1        0.0115
     26 C         139.7939  140.1340  168.7070 C.ar    1  UNL1        0.0577
     27 CL        138.8340  140.2801  169.8504 Cl      1  UNL1       -0.0822
     28 C         141.2663  140.3041  168.9374 C.ar    1  UNL1        0.0115
     29 C         142.2261  140.1580  167.7940 C.ar    1  UNL1        0.0054
     30 C         145.4454  142.1773  164.1910 C.3     1  UNL1        0.0017
     31 C         145.1172  141.0866  163.2151 C.3     1  UNL1        0.0196
@<TRIPOS>BOND
     1    30    31    1
     2    31    18    1
     3    18    19    1
     4    19    20   am
     5    20    21    2
     6    20    23    1
     7    23    24   ar
     8    24    25   ar
     9    25    26   ar
    10    26    27    1
    11    26    28   ar
    12    28    29   ar
    13     1    18    1
    14     1     2    1
    15     2     3    1
    16     3     4    1
    17     4     7    1
    18     7     8   ar
    19     8     9   ar
    20     9    10   ar
    21    10    11   ar
    22    11    12   ar
    23    12    13   ar
    24    13    16    1
    25    16    17    3
    26    13    14   ar
    27    14    15   ar
    28     4     5    1
    29     6     5    1
    30    29    23   ar
    31     6     1    1
    32     6     2    1
    33    15     7   ar
    34    15    10   ar
    35    19    22    1
@<TRIPOS>MOLECULE
*****
 31 35 0 0 0
SMALL
GASTEIGER

@<TRIPOS>ATOM
      1 C         142.3677  137.9503  158.0752 C.3     1  UNL1        0.0181
      2 C         141.1153  138.3886  158.7749 C.3     1  UNL1        0.0036
      3 C         140.0277  138.7694  159.7352 C.3     1  UNL1        0.0227
      4 C         140.5540  138.5866  161.1279 C.3     1  UNL1        0.0870
      5 C         141.9668  138.0928  161.0284 C.3     1  UNL1        0.0227
      6 C         142.3137  137.9704  159.5742 C.3     1  UNL1        0.0036
      7 N         139.7998  138.8512  162.3972 N.ar    1  UNL1       -0.3096
      8 C         139.3847  137.8225  163.4069 C.ar    1  UNL1        0.1800
      9 N         138.6567  138.5265  164.5134 N.ar    1  UNL1       -0.2049
     10 C         138.6220  139.9903  164.1877 C.ar    1  UNL1        0.1799
     11 N         138.0383  141.1663  164.9130 N.ar    1  UNL1       -0.2231
     12 C         138.1612  142.5431  164.3305 C.ar    1  UNL1        0.1109
     13 C         138.8676  142.7438  163.0226 C.ar    1  UNL1        0.0891
     14 C         139.4513  141.5677  162.2972 C.ar    1  UNL1        0.0322
     15 C         139.3285  140.1910  162.8798 C.ar    1  UNL1        0.0980
     16 C         138.9904  144.1206  162.4400 C.1     1  UNL1        0.1020
     17 N         139.1133  145.4974  161.8575 N.1     1  UNL1       -0.1908
     18 C         143.1218  137.6857  156.8059 C.3     1  UNL1        0.0718
     19 N         143.6439  136.3096  156.5167 N.am    1  UNL1       -0.3025
     20 C         142.7186  135.2508  155.9945 C.2     1  UNL1        0.2458
     21 O         141.2712  135.5680  155.7616 O.2     1  UNL1       -0.2701
     22 H         144.5939  136.1014  156.6695 H       1  UNL1        0.1497
     23 C         143.2408  133.8746  155.7052 C.ar    1  UNL1        0.0534
     24 C         144.2470  133.2460  156.6229 C.ar    1  UNL1        0.0054
     25 C         144.7691  131.8699  156.3337 C.ar    1  UNL1        0.0115
     26 C         144.2850  131.1224  155.1267 C.ar    1  UNL1        0.0577
     27 CL        144.8072  129.7463  154.8374 Cl      1  UNL1       -0.0822
     28 C         143.2788  131.7510  154.2089 C.ar    1  UNL1        0.0115
     29 C         142.7566  133.1271  154.4981 C.ar    1  UNL1        0.0054
     30 C         144.6368  138.8585  155.0511 C.3     1  UNL1        0.0017
     31 C         143.3539  138.7973  155.8258 C.3     1  UNL1        0.0196
@<TRIPOS>BOND
     1    30    31    1
     2    31    18    1
     3    18    19    1
     4    19    20   am
     5    20    21    2
     6    20    23    1
     7    23    24   ar
     8    24    25   ar
     9    25    26   ar
    10    26    27    1
    11    26    28   ar
    12    28    29   ar
    13     1    18    1
    14     1     2    1
    15     2     3    1
    16     3     4    1
    17     4     7    1
    18     7     8   ar
    19     8     9   ar
    20     9    10   ar
    21    10    11   ar
    22    11    12   ar
    23    12    13   ar
    24    13    16    1
    25    16    17    3
    26    13    14   ar
    27    14    15   ar
    28     4     5    1
    29     6     5    1
    30    29    23   ar
    31     6     1    1
    32     6     2    1
    33    15     7   ar
    34    15    10   ar
    35    19    22    1
@<TRIPOS>MOLECULE
*****
 31 35 0 0 0
SMALL
GASTEIGER

@<TRIPOS>ATOM
      1 C         140.4866  138.5306  163.9033 C.3     1  UNL1        0.0181
      2 C         141.6391  138.3597  162.9585 C.3     1  UNL1        0.0036
      3 C         142.5795  138.2607  161.7940 C.3     1  UNL1        0.0227
      4 C         141.8062  138.5687  160.5462 C.3     1  UNL1        0.0870
      5 C         140.3879  138.8581  160.9393 C.3     1  UNL1        0.0227
      6 C         140.2846  138.7289  162.4302 C.3     1  UNL1        0.0036
      7 N         142.3549  138.5846  159.1502 N.ar    1  UNL1       -0.3096
      8 C         142.7262  137.3814  158.3351 C.ar    1  UNL1        0.1800
      9 N         143.2293  137.8597  157.0054 N.ar    1  UNL1       -0.2049
     10 C         143.1690  139.3584  156.9987 C.ar    1  UNL1        0.1799
     11 N         143.5364  140.3731  155.9569 N.ar    1  UNL1       -0.2231
     12 C         143.3633  141.8358  156.2406 C.ar    1  UNL1        0.1109
     13 C         142.8229  142.2838  157.5662 C.ar    1  UNL1        0.0891
     14 C         142.4555  141.2691  158.6081 C.ar    1  UNL1        0.0322
     15 C         142.6286  139.8065  158.3243 C.ar    1  UNL1        0.0980
     16 C         142.6499  143.7466  157.8500 C.1     1  UNL1        0.1020
     17 N         142.4769  145.2093  158.1336 N.1     1  UNL1       -0.1908
     18 C         139.9380  138.5147  165.2992 C.3     1  UNL1        0.0718
     19 N         140.6542  139.2470  166.3950 N.am    1  UNL1       -0.3025
     20 C         140.3459  140.6912  166.6580 C.2     1  UNL1        0.2458
     21 O         139.3214  141.4032  165.8254 O.2     1  UNL1       -0.2701
     22 H         141.3267  138.7797  166.9415 H       1  UNL1        0.1497
     23 C         141.0623  141.4235  167.7539 C.ar    1  UNL1        0.0534
     24 C         140.4431  142.6426  168.3706 C.ar    1  UNL1        0.0054
     25 C         141.1594  143.3748  169.4664 C.ar    1  UNL1        0.0115
     26 C         142.4948  142.8880  169.9454 C.ar    1  UNL1        0.0577
     27 CL        143.2111  143.6202  171.0412 Cl      1  UNL1       -0.0822
     28 C         143.1140  141.6689  169.3287 C.ar    1  UNL1        0.0115
     29 C         142.3978  140.9366  168.2329 C.ar    1  UNL1        0.0054
     30 C         137.7784  138.2225  166.7138 C.3     1  UNL1        0.0017
     31 C         138.6730  137.7666  165.5994 C.3     1  UNL1        0.0196
@<TRIPOS>BOND
     1    30    31    1
     2    31    18    1
     3    18    19    1
     4    19    20   am
     5    20    21    2
     6    20    23    1
     7    23    24   ar
     8    24    25   ar
     9    25    26   ar
    10    26    27    1
    11    26    28   ar
    12    28    29   ar
    13     1    18    1
    14     1     2    1
    15     2     3    1
    16     3     4    1
    17     4     7    1
    18     7     8   ar
    19     8     9   ar
    20     9    10   ar
    21    10    11   ar
    22    11    12   ar
    23    12    13   ar
    24    13    16    1
    25    16    17    3
    26    13    14   ar
    27    14    15   ar
    28     4     5    1
    29     6     5    1
    30    29    23   ar
    31     6     1    1
    32     6     2    1
    33    15     7   ar
    34    15    10   ar
    35    19    22    1
@<TRIPOS>MOLECULE
*****
 31 35 0 0 0
SMALL
GASTEIGER

@<TRIPOS>ATOM
      1 C         140.1257  138.2763  157.9406 C.3     1  UNL1        0.0181
      2 C         140.4838  138.4487  159.3871 C.3     1  UNL1        0.0036
      3 C         140.5683  138.7738  160.8490 C.3     1  UNL1        0.0227
      4 C         139.3352  139.5402  161.2255 C.3     1  UNL1        0.0870
      5 C         138.4884  139.6888  159.9963 C.3     1  UNL1        0.0227
      6 C         139.1983  139.0142  158.8601 C.3     1  UNL1        0.0036
      7 N         139.0065  140.0658  162.5914 N.ar    1  UNL1       -0.3096
      8 C         138.6784  139.2387  163.7990 C.ar    1  UNL1        0.1800
      9 N         138.4172  140.1725  164.9434 N.ar    1  UNL1       -0.2049
     10 C         138.5839  141.5768  164.4432 C.ar    1  UNL1        0.1799
     11 N         138.4511  142.9070  165.1235 N.ar    1  UNL1       -0.2231
     12 C         138.6825  144.1713  164.3502 C.ar    1  UNL1        0.1109
     13 C         139.0467  144.1053  162.8965 C.ar    1  UNL1        0.0891
     14 C         139.1795  142.7751  162.2162 C.ar    1  UNL1        0.0322
     15 C         138.9481  141.5109  162.9895 C.ar    1  UNL1        0.0980
     16 C         139.2781  145.3697  162.1232 C.1     1  UNL1        0.1020
     17 N         139.5094  146.6340  161.3500 N.1     1  UNL1       -0.1908
     18 C         140.4544  137.7508  156.5748 C.3     1  UNL1        0.0718
     19 N         141.0338  136.3759  156.4196 N.am    1  UNL1       -0.3025
     20 C         142.4981  136.1484  156.6521 C.2     1  UNL1        0.2458
     21 O         143.3830  137.2957  157.0399 O.2     1  UNL1       -0.2701
     22 H         140.4529  135.6228  156.1651 H       1  UNL1        0.1497
     23 C         143.0774  134.7734  156.4969 C.ar    1  UNL1        0.0534
     24 C         143.8336  134.1459  157.6301 C.ar    1  UNL1        0.0054
     25 C         144.4129  132.7710  157.4749 C.ar    1  UNL1        0.0115
     26 C         144.2360  132.0237  156.1864 C.ar    1  UNL1        0.0577
     27 CL        144.8153  130.6488  156.0312 Cl      1  UNL1       -0.0822
     28 C         143.4798  132.6513  155.0531 C.ar    1  UNL1        0.0115
     29 C         142.9005  134.0261  155.2083 C.ar    1  UNL1        0.0054
     30 C         140.0509  137.9588  154.0167 C.3     1  UNL1        0.0017
     31 C         140.2038  138.6001  155.3640 C.3     1  UNL1        0.0196
@<TRIPOS>BOND
     1    30    31    1
     2    31    18    1
     3    18    19    1
     4    19    20   am
     5    20    21    2
     6    20    23    1
     7    23    24   ar
     8    24    25   ar
     9    25    26   ar
    10    26    27    1
    11    26    28   ar
    12    28    29   ar
    13     1    18    1
    14     1     2    1
    15     2     3    1
    16     3     4    1
    17     4     7    1
    18     7     8   ar
    19     8     9   ar
    20     9    10   ar
    21    10    11   ar
    22    11    12   ar
    23    12    13   ar
    24    13    16    1
    25    16    17    3
    26    13    14   ar
    27    14    15   ar
    28     4     5    1
    29     6     5    1
    30    29    23   ar
    31     6     1    1
    32     6     2    1
    33    15     7   ar
    34    15    10   ar
    35    19    22    1
@<TRIPOS>MOLECULE
*****
 31 35 0 0 0
SMALL
GASTEIGER

@<TRIPOS>ATOM
      1 C         142.3887  136.9738  157.4562 C.3     1  UNL1        0.0181
      2 C         143.1149  135.6802  157.2338 C.3     1  UNL1        0.0036
      3 C         143.6213  134.3390  156.7925 C.3     1  UNL1        0.0227
      4 C         142.7227  133.8407  155.6998 C.3     1  UNL1        0.0870
      5 C         141.6607  134.8739  155.4656 C.3     1  UNL1        0.0227
      6 C         141.9031  136.0107  156.4137 C.3     1  UNL1        0.0036
      7 N         142.8615  132.5379  154.9694 N.ar    1  UNL1       -0.3096
      8 C         142.7897  132.3483  153.4832 C.ar    1  UNL1        0.1800
      9 N         142.9803  130.8892  153.1923 N.ar    1  UNL1       -0.2049
     10 C         143.1699  130.1769  154.4988 C.ar    1  UNL1        0.1799
     11 N         143.3999  128.7322  154.8302 N.ar    1  UNL1       -0.2231
     12 C         143.5565  128.3065  156.2599 C.ar    1  UNL1        0.1109
     13 C         143.4831  129.3255  157.3582 C.ar    1  UNL1        0.0891
     14 C         143.2531  130.7702  157.0268 C.ar    1  UNL1        0.0322
     15 C         143.0965  131.1959  155.5971 C.ar    1  UNL1        0.0980
     16 C         143.6397  128.8997  158.7880 C.1     1  UNL1        0.1020
     17 N         143.7963  128.4738  160.2177 N.1     1  UNL1       -0.1908
     18 C         142.2499  138.2765  158.1865 C.3     1  UNL1        0.0718
     19 N         141.4153  138.3538  159.4305 N.am    1  UNL1       -0.3025
     20 C         141.9771  137.8873  160.7408 C.2     1  UNL1        0.2458
     21 O         143.3735  137.3435  160.8070 O.2     1  UNL1       -0.2701
     22 H         140.4988  138.7106  159.3870 H       1  UNL1        0.1497
     23 C         141.1425  137.9645  161.9848 C.ar    1  UNL1        0.0534
     24 C         139.6592  138.1619  161.8817 C.ar    1  UNL1        0.0054
     25 C         138.8246  138.2392  163.1257 C.ar    1  UNL1        0.0115
     26 C         139.4733  138.1190  164.4727 C.ar    1  UNL1        0.0577
     27 CL        138.6387  138.1962  165.7167 Cl      1  UNL1       -0.0822
     28 C         140.9567  137.9215  164.5759 C.ar    1  UNL1        0.0115
     29 C         141.7913  137.8443  163.3319 C.ar    1  UNL1        0.0054
     30 C         143.6070  139.4806  156.3269 C.3     1  UNL1        0.0017
     31 C         142.9456  139.5022  157.6729 C.3     1  UNL1        0.0196
@<TRIPOS>BOND
     1    30    31    1
     2    31    18    1
     3    18    19    1
     4    19    20   am
     5    20    21    2
     6    20    23    1
     7    23    24   ar
     8    24    25   ar
     9    25    26   ar
    10    26    27    1
    11    26    28   ar
    12    28    29   ar
    13     1    18    1
    14     1     2    1
    15     2     3    1
    16     3     4    1
    17     4     7    1
    18     7     8   ar
    19     8     9   ar
    20     9    10   ar
    21    10    11   ar
    22    11    12   ar
    23    12    13   ar
    24    13    16    1
    25    16    17    3
    26    13    14   ar
    27    14    15   ar
    28     4     5    1
    29     6     5    1
    30    29    23   ar
    31     6     1    1
    32     6     2    1
    33    15     7   ar
    34    15    10   ar
    35    19    22    1
@<TRIPOS>MOLECULE
*****
 31 35 0 0 0
SMALL
GASTEIGER

@<TRIPOS>ATOM
      1 C         142.2180  138.8056  160.7213 C.3     1  UNL1        0.0181
      2 C         142.0749  138.3715  162.1500 C.3     1  UNL1        0.0036
      3 C         141.6699  138.1098  163.5704 C.3     1  UNL1        0.0227
      4 C         140.3876  138.8435  163.8295 C.3     1  UNL1        0.0870
      5 C         140.0000  139.5588  162.5693 C.3     1  UNL1        0.0227
      6 C         141.0428  139.2670  161.5313 C.3     1  UNL1        0.0036
      7 N         139.6264  138.8594  165.1220 N.ar    1  UNL1       -0.3096
      8 C         138.3190  138.1723  165.3837 C.ar    1  UNL1        0.1800
      9 N         137.9237  138.4533  166.8031 N.ar    1  UNL1       -0.2049
     10 C         138.9868  139.3141  167.4186 C.ar    1  UNL1        0.1799
     11 N         139.1325  139.9019  168.7909 N.ar    1  UNL1       -0.2231
     12 C         140.3306  140.7405  169.1243 C.ar    1  UNL1        0.1109
     13 C         141.3829  140.9915  168.0853 C.ar    1  UNL1        0.0891
     14 C         141.2372  140.4037  166.7129 C.ar    1  UNL1        0.0322
     15 C         140.0391  139.5651  166.3796 C.ar    1  UNL1        0.0980
     16 C         142.5811  141.8302  168.4187 C.1     1  UNL1        0.1020
     17 N         143.7792  142.6688  168.7521 N.1     1  UNL1       -0.1908
     18 C         142.9791  138.7898  159.4289 C.3     1  UNL1        0.0718
     19 N         143.0563  137.5294  158.6193 N.am    1  UNL1       -0.3025
     20 C         142.1762  137.3551  157.4172 C.2     1  UNL1        0.2458
     21 O         141.2188  138.4411  157.0247 O.2     1  UNL1       -0.2701
     22 H         143.6846  136.8166  158.8769 H       1  UNL1        0.1497
     23 C         142.2534  136.0946  156.6076 C.ar    1  UNL1        0.0534
     24 C         143.3005  135.0666  156.9183 C.ar    1  UNL1        0.0054
     25 C         143.3777  133.8062  156.1088 C.ar    1  UNL1        0.0115
     26 C         142.4078  133.5739  154.9884 C.ar    1  UNL1        0.0577
     27 CL        142.4850  132.3135  154.1788 Cl      1  UNL1       -0.0822
     28 C         141.3606  134.6019  154.6776 C.ar    1  UNL1        0.0115
     29 C         141.2834  135.8623  155.4872 C.ar    1  UNL1        0.0054
     30 C         143.6271  141.2813  159.7789 C.3     1  UNL1        0.0017
     31 C         143.6631  140.0344  158.9460 C.3     1  UNL1        0.0196
@<TRIPOS>BOND
     1    30    31    1
     2    31    18    1
     3    18    19    1
     4    19    20   am
     5    20    21    2
     6    20    23    1
     7    23    24   ar
     8    24    25   ar
     9    25    26   ar
    10    26    27    1
    11    26    28   ar
    12    28    29   ar
    13     1    18    1
    14     1     2    1
    15     2     3    1
    16     3     4    1
    17     4     7    1
    18     7     8   ar
    19     8     9   ar
    20     9    10   ar
    21    10    11   ar
    22    11    12   ar
    23    12    13   ar
    24    13    16    1
    25    16    17    3
    26    13    14   ar
    27    14    15   ar
    28     4     5    1
    29     6     5    1
    30    29    23   ar
    31     6     1    1
    32     6     2    1
    33    15     7   ar
    34    15    10   ar
    35    19    22    1
