@<TRIPOS>MOLECULE
*****
 30 33 0 0 0
SMALL
GASTEIGER

@<TRIPOS>ATOM
      1 C         141.4234  142.1096  166.2367 C.2     1  UNL1        0.0020
      2 C         140.9352  142.5411  167.5878 C.2     1  UNL1        0.0130
      3 C         141.2217  141.6964  168.7938 C.3     1  UNL1        0.1542
      4 C         140.4471  142.9726  168.9389 C.3     1  UNL1        0.0614
      5 C         139.9590  143.4042  170.2900 C.3     1  UNL1        0.0725
      6 N         140.2455  142.5594  171.4960 N.3     1  UNL1       -0.2972
      7 C         141.0202  141.2832  171.3508 C.3     1  UNL1        0.0725
      8 C         141.5083  140.8517  169.9997 C.3     1  UNL1        0.0614
      9 O         141.9965  140.4201  168.6486 O.3     1  UNL1       -0.4785
     10 C         142.4846  139.9886  167.2975 C.ar    1  UNL1        0.1386
     11 C         143.2593  138.7124  167.1523 C.ar    1  UNL1        0.0369
     12 C         143.7474  138.2808  165.8012 C.ar    1  UNL1        0.0031
     13 C         143.4609  139.1256  164.5953 C.ar    1  UNL1        0.0002
     14 C         142.6862  140.4018  164.7404 C.ar    1  UNL1        0.0030
     15 C         142.1980  140.8333  166.0915 C.ar    1  UNL1        0.0338
     16 H         139.3437  142.3118  171.9030 H       1  UNL1        0.1233
     17 C         140.5637  144.6437  162.6188 C.ar    1  UNL1        0.0810
     18 C         141.8810  144.7676  163.3254 C.ar    1  UNL1        0.0068
     19 C         142.1675  143.9229  164.5314 C.ar    1  UNL1        0.0003
     20 C         141.1368  142.9543  165.0307 C.ar    1  UNL1        0.0021
     21 C         139.8194  142.8303  164.3241 C.ar    1  UNL1        0.0298
     22 C         139.5329  143.6751  163.1181 C.ar    1  UNL1        0.1445
     23 F         138.2156  143.5512  162.4115 F       1  UNL1       -0.2040
     24 N         140.6331  144.9875  160.0445 N.am    1  UNL1       -0.2760
     25 C         140.2771  145.4884  161.4128 C.2     1  UNL1        0.2512
     26 O         139.6345  146.8341  161.5752 O.2     1  UNL1       -0.2698
     27 C         141.2894  145.8183  157.6719 C.3     1  UNL1        0.0233
     28 C         140.3466  145.8322  158.8385 C.3     1  UNL1        0.0938
     29 C         141.2758  143.6418  159.8821 C.3     1  UNL1        0.0938
     30 C         140.4273  142.4314  159.6275 C.3     1  UNL1        0.0233
@<TRIPOS>BOND
     1    27    28    1
     2    28    24    1
     3    24    29    1
     4    29    30    1
     5    24    25   am
     6    25    26    2
     7    25    17    1
     8    17    18   ar
     9    18    19   ar
    10    19    20   ar
    11    20     1    1
    12     1     2    2
    13     2     3    1
    14     3     4    1
    15     4     5    1
    16     5     6    1
    17     6     7    1
    18     7     8    1
    19     3     9    1
    20     9    10    1
    21    10    11   ar
    22    11    12   ar
    23    12    13   ar
    24    13    14   ar
    25    14    15   ar
    26    20    21   ar
    27    21    22   ar
    28    22    23    1
    29    22    17   ar
    30    15     1    1
    31     8     3    1
    32    15    10   ar
    33     6    16    1
@<TRIPOS>MOLECULE
*****
 30 33 0 0 0
SMALL
GASTEIGER

@<TRIPOS>ATOM
      1 C         139.7891  141.9134  165.7394 C.2     1  UNL1        0.0020
      2 C         140.1418  142.4512  167.0946 C.2     1  UNL1        0.0130
      3 C         140.1123  141.5472  168.2912 C.3     1  UNL1        0.1542
      4 C         140.4945  142.9889  168.4497 C.3     1  UNL1        0.0614
      5 C         140.8472  143.5266  169.8048 C.3     1  UNL1        0.0725
      6 N         140.8177  142.6226  171.0014 N.3     1  UNL1       -0.2972
      7 C         140.4354  141.1809  170.8429 C.3     1  UNL1        0.0725
      8 C         140.0827  140.6431  169.4878 C.3     1  UNL1        0.0614
      9 O         139.7300  140.1053  168.1326 O.3     1  UNL1       -0.4785
     10 C         139.3772  139.5676  166.7775 C.ar    1  UNL1        0.1386
     11 C         138.9950  138.1258  166.6189 C.ar    1  UNL1        0.0369
     12 C         138.6422  137.5880  165.2638 C.ar    1  UNL1        0.0031
     13 C         138.6718  138.4921  164.0672 C.ar    1  UNL1        0.0002
     14 C         139.0541  139.9338  164.2257 C.ar    1  UNL1        0.0030
     15 C         139.4068  140.4716  165.5809 C.ar    1  UNL1        0.0338
     16 H         140.1575  143.0313  171.6630 H       1  UNL1        0.1233
     17 C         139.8778  144.6254  162.1496 C.ar    1  UNL1        0.0810
     18 C         138.5690  144.1006  162.6609 C.ar    1  UNL1        0.0068
     19 C         138.5394  143.1965  163.8575 C.ar    1  UNL1        0.0003
     20 C         139.8187  142.8174  164.5428 C.ar    1  UNL1        0.0021
     21 C         141.1276  143.3423  164.0315 C.ar    1  UNL1        0.0298
     22 C         141.1571  144.2463  162.8349 C.ar    1  UNL1        0.1445
     23 F         142.4660  144.7712  162.3237 F       1  UNL1       -0.2040
     24 N         140.3676  145.0026  159.6261 N.am    1  UNL1       -0.2760
     25 C         139.9074  145.5295  160.9530 C.2     1  UNL1        0.2512
     26 O         139.4767  146.9604  161.0833 O.2     1  UNL1       -0.2698
     27 C         141.5944  145.9158  157.5259 C.3     1  UNL1        0.0233
     28 C         140.3971  145.9066  158.4295 C.3     1  UNL1        0.0938
     29 C         140.7982  143.5716  159.4959 C.3     1  UNL1        0.0938
     30 C         140.0875  142.6584  158.5414 C.3     1  UNL1        0.0233
@<TRIPOS>BOND
     1    27    28    1
     2    28    24    1
     3    24    29    1
     4    29    30    1
     5    24    25   am
     6    25    26    2
     7    25    17    1
     8    17    18   ar
     9    18    19   ar
    10    19    20   ar
    11    20     1    1
    12     1     2    2
    13     2     3    1
    14     3     4    1
    15     4     5    1
    16     5     6    1
    17     6     7    1
    18     7     8    1
    19     3     9    1
    20     9    10    1
    21    10    11   ar
    22    11    12   ar
    23    12    13   ar
    24    13    14   ar
    25    14    15   ar
    26    20    21   ar
    27    21    22   ar
    28    22    23    1
    29    22    17   ar
    30    15     1    1
    31     8     3    1
    32    15    10   ar
    33     6    16    1
@<TRIPOS>MOLECULE
*****
 30 33 0 0 0
SMALL
GASTEIGER

@<TRIPOS>ATOM
      1 C         141.4675  140.9645  166.3335 C.2     1  UNL1        0.0020
      2 C         142.0868  141.5867  167.5498 C.2     1  UNL1        0.0130
      3 C         141.4491  141.4005  168.8947 C.3     1  UNL1        0.1542
      4 C         142.7060  142.2089  168.7661 C.3     1  UNL1        0.0614
      5 C         143.3252  142.8311  169.9824 C.3     1  UNL1        0.0725
      6 N         142.6875  142.6449  171.3273 N.3     1  UNL1       -0.2972
      7 C         141.4306  141.8365  171.4558 C.3     1  UNL1        0.0725
      8 C         140.8114  141.2143  170.2396 C.3     1  UNL1        0.0614
      9 O         140.1921  140.5920  169.0232 O.3     1  UNL1       -0.4785
     10 C         139.5729  139.9698  167.8070 C.ar    1  UNL1        0.1386
     11 C         138.3159  139.1614  167.9355 C.ar    1  UNL1        0.0369
     12 C         137.6967  138.5392  166.7192 C.ar    1  UNL1        0.0031
     13 C         138.3344  138.7254  165.3743 C.ar    1  UNL1        0.0002
     14 C         139.5913  139.5338  165.2458 C.ar    1  UNL1        0.0030
     15 C         140.2106  140.1560  166.4621 C.ar    1  UNL1        0.0338
     16 H         142.4762  143.5766  171.6845 H       1  UNL1        0.1233
     17 C         143.3806  141.5231  162.2989 C.ar    1  UNL1        0.0810
     18 C         142.3463  142.4971  162.7798 C.ar    1  UNL1        0.0068
     19 C         141.7086  142.3109  164.1247 C.ar    1  UNL1        0.0003
     20 C         142.1052  141.1507  164.9886 C.ar    1  UNL1        0.0021
     21 C         143.1396  140.1765  164.5077 C.ar    1  UNL1        0.0298
     22 C         143.7773  140.3627  163.1629 C.ar    1  UNL1        0.1445
     23 F         144.8116  139.3887  162.6819 F       1  UNL1       -0.2040
     24 N         143.5181  140.9320  159.7727 N.am    1  UNL1       -0.2760
     25 C         144.0183  141.7093  160.9540 C.2     1  UNL1        0.2512
     26 O         145.1562  142.6729  160.7905 O.2     1  UNL1       -0.2698
     27 C         143.7308  142.2558  157.5473 C.3     1  UNL1        0.0233
     28 C         144.1558  141.1182  158.4279 C.3     1  UNL1        0.0938
     29 C         142.3802  139.9684  159.9362 C.3     1  UNL1        0.0938
     30 C         142.6543  138.4997  160.0693 C.3     1  UNL1        0.0233
@<TRIPOS>BOND
     1    27    28    1
     2    28    24    1
     3    24    29    1
     4    29    30    1
     5    24    25   am
     6    25    26    2
     7    25    17    1
     8    17    18   ar
     9    18    19   ar
    10    19    20   ar
    11    20     1    1
    12     1     2    2
    13     2     3    1
    14     3     4    1
    15     4     5    1
    16     5     6    1
    17     6     7    1
    18     7     8    1
    19     3     9    1
    20     9    10    1
    21    10    11   ar
    22    11    12   ar
    23    12    13   ar
    24    13    14   ar
    25    14    15   ar
    26    20    21   ar
    27    21    22   ar
    28    22    23    1
    29    22    17   ar
    30    15     1    1
    31     8     3    1
    32    15    10   ar
    33     6    16    1
@<TRIPOS>MOLECULE
*****
 30 33 0 0 0
SMALL
GASTEIGER

@<TRIPOS>ATOM
      1 C         140.1976  142.0204  162.5799 C.2     1  UNL1        0.0020
      2 C         140.5385  143.1583  161.6638 C.2     1  UNL1        0.0130
      3 C         139.9825  143.1923  160.2711 C.3     1  UNL1        0.1542
      4 C         140.8793  144.2960  160.7477 C.3     1  UNL1        0.0614
      5 C         141.2202  145.4338  159.8316 C.3     1  UNL1        0.0725
      6 N         140.6641  145.4678  158.4389 N.3     1  UNL1       -0.2972
      7 C         139.7673  144.3640  157.9623 C.3     1  UNL1        0.0725
      8 C         139.4264  143.2263  158.8784 C.3     1  UNL1        0.0614
      9 O         139.0855  142.0884  159.7944 O.3     1  UNL1       -0.4785
     10 C         138.7447  140.9506  160.7105 C.ar    1  UNL1        0.1386
     11 C         137.8477  139.8468  160.2339 C.ar    1  UNL1        0.0369
     12 C         137.5069  138.7090  161.1500 C.ar    1  UNL1        0.0031
     13 C         138.0629  138.6750  162.5427 C.ar    1  UNL1        0.0002
     14 C         138.9598  139.7788  163.0193 C.ar    1  UNL1        0.0030
     15 C         139.3007  140.9166  162.1032 C.ar    1  UNL1        0.0338
     16 H         141.4619  145.4939  157.8039 H       1  UNL1        0.1233
     17 C         141.8657  141.9184  166.7580 C.ar    1  UNL1        0.0810
     18 C         142.5289  141.1321  165.6663 C.ar    1  UNL1        0.0068
     19 C         141.9728  141.1661  164.2736 C.ar    1  UNL1        0.0003
     20 C         140.7536  141.9864  163.9726 C.ar    1  UNL1        0.0021
     21 C         140.0905  142.7728  165.0644 C.ar    1  UNL1        0.0298
     22 C         140.6465  142.7388  166.4571 C.ar    1  UNL1        0.1445
     23 F         139.9834  143.5251  167.5488 F       1  UNL1       -0.2040
     24 N         141.7669  141.0349  169.1992 N.am    1  UNL1       -0.2760
     25 C         142.4218  141.8844  168.1507 C.2     1  UNL1        0.2512
     26 O         143.6328  142.7000  168.4949 O.2     1  UNL1       -0.2698
     27 C         143.2518  139.8966  171.0019 C.3     1  UNL1        0.0233
     28 C         142.3230  141.0009  170.5920 C.3     1  UNL1        0.0938
     29 C         140.5559  140.2193  168.8550 C.3     1  UNL1        0.0938
     30 C         139.2839  140.4020  169.6287 C.3     1  UNL1        0.0233
@<TRIPOS>BOND
     1    27    28    1
     2    28    24    1
     3    24    29    1
     4    29    30    1
     5    24    25   am
     6    25    26    2
     7    25    17    1
     8    17    18   ar
     9    18    19   ar
    10    19    20   ar
    11    20     1    1
    12     1     2    2
    13     2     3    1
    14     3     4    1
    15     4     5    1
    16     5     6    1
    17     6     7    1
    18     7     8    1
    19     3     9    1
    20     9    10    1
    21    10    11   ar
    22    11    12   ar
    23    12    13   ar
    24    13    14   ar
    25    14    15   ar
    26    20    21   ar
    27    21    22   ar
    28    22    23    1
    29    22    17   ar
    30    15     1    1
    31     8     3    1
    32    15    10   ar
    33     6    16    1
@<TRIPOS>MOLECULE
*****
 30 33 0 0 0
SMALL
GASTEIGER

@<TRIPOS>ATOM
      1 C         141.3257  141.4690  165.4153 C.2     1  UNL1        0.0020
      2 C         141.8811  141.1838  166.7792 C.2     1  UNL1        0.0130
      3 C         141.4464  142.0093  167.9537 C.3     1  UNL1        0.1542
      4 C         142.4365  140.8986  168.1430 C.3     1  UNL1        0.0614
      5 C         142.9919  140.6134  169.5069 C.3     1  UNL1        0.0725
      6 N         142.5571  141.4389  170.6814 N.3     1  UNL1       -0.2972
      7 C         141.5670  142.5497  170.4921 C.3     1  UNL1        0.0725
      8 C         141.0116  142.8348  169.1282 C.3     1  UNL1        0.0614
      9 O         140.4562  143.1201  167.7643 O.3     1  UNL1       -0.4785
     10 C         139.9008  143.4053  166.4004 C.ar    1  UNL1        0.1386
     11 C         138.9106  144.5160  166.2110 C.ar    1  UNL1        0.0369
     12 C         138.3552  144.8012  164.8471 C.ar    1  UNL1        0.0031
     13 C         138.7900  143.9757  163.6726 C.ar    1  UNL1        0.0002
     14 C         139.7801  142.8649  163.8620 C.ar    1  UNL1        0.0030
     15 C         140.3356  142.5797  165.2259 C.ar    1  UNL1        0.0338
     16 H         143.3996  141.8592  171.0739 H       1  UNL1        0.1233
     17 C         142.6299  138.9924  161.8917 C.ar    1  UNL1        0.0810
     18 C         143.2629  140.3285  162.1448 C.ar    1  UNL1        0.0068
     19 C         142.8282  141.1540  163.3193 C.ar    1  UNL1        0.0003
     20 C         141.7604  140.6435  164.2407 C.ar    1  UNL1        0.0021
     21 C         141.1273  139.3073  163.9877 C.ar    1  UNL1        0.0298
     22 C         141.5621  138.4817  162.8132 C.ar    1  UNL1        0.1445
     23 F         140.9291  137.1456  162.5602 F       1  UNL1       -0.2040
     24 N         142.3009  138.2359  159.4281 N.am    1  UNL1       -0.2760
     25 C         143.0647  138.1668  160.7172 C.2     1  UNL1        0.2512
     26 O         144.2633  137.2722  160.8319 O.2     1  UNL1       -0.2698
     27 C         142.9170  138.0537  156.9107 C.3     1  UNL1        0.0233
     28 C         142.7357  137.4104  158.2536 C.3     1  UNL1        0.0938
     29 C         141.1023  139.1306  159.3134 C.3     1  UNL1        0.0938
     30 C         139.7247  138.5658  159.4958 C.3     1  UNL1        0.0233
@<TRIPOS>BOND
     1    27    28    1
     2    28    24    1
     3    24    29    1
     4    29    30    1
     5    24    25   am
     6    25    26    2
     7    25    17    1
     8    17    18   ar
     9    18    19   ar
    10    19    20   ar
    11    20     1    1
    12     1     2    2
    13     2     3    1
    14     3     4    1
    15     4     5    1
    16     5     6    1
    17     6     7    1
    18     7     8    1
    19     3     9    1
    20     9    10    1
    21    10    11   ar
    22    11    12   ar
    23    12    13   ar
    24    13    14   ar
    25    14    15   ar
    26    20    21   ar
    27    21    22   ar
    28    22    23    1
    29    22    17   ar
    30    15     1    1
    31     8     3    1
    32    15    10   ar
    33     6    16    1
@<TRIPOS>MOLECULE
*****
 30 33 0 0 0
SMALL
GASTEIGER

@<TRIPOS>ATOM
      1 C         141.5344  140.1999  163.7448 C.2     1  UNL1        0.0020
      2 C         140.4318  139.6259  164.5844 C.2     1  UNL1        0.0130
      3 C         140.2941  140.0327  166.0216 C.3     1  UNL1        0.1542
      4 C         139.3293  139.0519  165.4240 C.3     1  UNL1        0.0614
      5 C         138.2267  138.4779  166.2636 C.3     1  UNL1        0.0725
      6 N         138.0890  138.8847  167.7008 N.3     1  UNL1       -0.2972
      7 C         139.0538  139.8655  168.2984 C.3     1  UNL1        0.0725
      8 C         140.1564  140.4395  167.4588 C.3     1  UNL1        0.0614
      9 O         141.2590  141.0135  166.6192 O.3     1  UNL1       -0.4785
     10 C         142.3615  141.5875  165.7796 C.ar    1  UNL1        0.1386
     11 C         143.3264  142.5683  166.3772 C.ar    1  UNL1        0.0369
     12 C         144.4289  143.1423  165.5376 C.ar    1  UNL1        0.0031
     13 C         144.5666  142.7355  164.1004 C.ar    1  UNL1        0.0002
     14 C         143.6018  141.7547  163.5028 C.ar    1  UNL1        0.0030
     15 C         142.4992  141.1807  164.3424 C.ar    1  UNL1        0.0338
     16 H         138.1547  138.0315  168.2559 H       1  UNL1        0.1233
     17 C         141.9475  138.9795  159.4332 C.ar    1  UNL1        0.0810
     18 C         141.1884  140.2226  159.7914 C.ar    1  UNL1        0.0068
     19 C         141.0507  140.6294  161.2286 C.ar    1  UNL1        0.0003
     20 C         141.6721  139.7931  162.3076 C.ar    1  UNL1        0.0021
     21 C         142.4313  138.5499  161.9495 C.ar    1  UNL1        0.0298
     22 C         142.5690  138.1431  160.5123 C.ar    1  UNL1        0.1445
     23 F         143.3282  136.9000  160.1541 F       1  UNL1       -0.2040
     24 N         143.1533  139.1881  157.1414 N.am    1  UNL1       -0.2760
     25 C         142.0852  138.5727  157.9960 C.2     1  UNL1        0.2512
     26 O         141.1548  137.5505  157.4134 O.2     1  UNL1       -0.2698
     27 C         144.0940  137.5671  155.3420 C.3     1  UNL1        0.0233
     28 C         143.2910  138.7813  155.7042 C.3     1  UNL1        0.0938
     29 C         144.0838  140.2104  157.7240 C.3     1  UNL1        0.0938
     30 C         145.1046  140.8789  156.8517 C.3     1  UNL1        0.0233
@<TRIPOS>BOND
     1    27    28    1
     2    28    24    1
     3    24    29    1
     4    29    30    1
     5    24    25   am
     6    25    26    2
     7    25    17    1
     8    17    18   ar
     9    18    19   ar
    10    19    20   ar
    11    20     1    1
    12     1     2    2
    13     2     3    1
    14     3     4    1
    15     4     5    1
    16     5     6    1
    17     6     7    1
    18     7     8    1
    19     3     9    1
    20     9    10    1
    21    10    11   ar
    22    11    12   ar
    23    12    13   ar
    24    13    14   ar
    25    14    15   ar
    26    20    21   ar
    27    21    22   ar
    28    22    23    1
    29    22    17   ar
    30    15     1    1
    31     8     3    1
    32    15    10   ar
    33     6    16    1
@<TRIPOS>MOLECULE
*****
 30 33 0 0 0
SMALL
GASTEIGER

@<TRIPOS>ATOM
      1 C         140.2583  140.3655  162.4007 C.2     1  UNL1        0.0020
      2 C         140.2679  141.8649  162.4434 C.2     1  UNL1        0.0130
      3 C         139.6673  142.5856  163.6138 C.3     1  UNL1        0.1542
      4 C         140.2775  143.3642  162.4863 C.3     1  UNL1        0.0614
      5 C         140.2870  144.8635  162.5291 C.3     1  UNL1        0.0725
      6 N         139.6864  145.5843  163.6995 N.3     1  UNL1       -0.2972
      7 C         139.0763  144.8057  164.8270 C.3     1  UNL1        0.0725
      8 C         139.0667  143.3064  164.7842 C.3     1  UNL1        0.0614
      9 O         139.0571  141.8070  164.7414 O.3     1  UNL1       -0.4785
     10 C         139.0475  140.3076  164.6986 C.ar    1  UNL1        0.1386
     11 C         138.4373  139.5290  165.8262 C.ar    1  UNL1        0.0369
     12 C         138.4277  138.0296  165.7834 C.ar    1  UNL1        0.0031
     13 C         139.0283  137.3089  164.6130 C.ar    1  UNL1        0.0002
     14 C         139.6385  138.0875  163.4854 C.ar    1  UNL1        0.0030
     15 C         139.6481  139.5869  163.5282 C.ar    1  UNL1        0.0338
     16 H         138.9534  146.1887  163.3284 H       1  UNL1        0.1233
     17 C         142.0601  138.2032  158.8895 C.ar    1  UNL1        0.0810
     18 C         142.9313  138.6361  160.0312 C.ar    1  UNL1        0.0068
     19 C         142.3307  139.3569  161.2016 C.ar    1  UNL1        0.0003
     20 C         140.8589  139.6447  161.2303 C.ar    1  UNL1        0.0021
     21 C         139.9876  139.2118  160.0885 C.ar    1  UNL1        0.0298
     22 C         140.5882  138.4911  158.9181 C.ar    1  UNL1        0.1445
     23 F         139.7170  138.0582  157.7764 F       1  UNL1       -0.2040
     24 N         143.0178  138.2399  156.4747 N.am    1  UNL1       -0.2760
     25 C         142.6607  137.4825  157.7191 C.2     1  UNL1        0.2512
     26 O         142.9042  136.0042  157.7932 O.2     1  UNL1       -0.2698
     27 C         142.7332  136.7869  154.3398 C.3     1  UNL1        0.0233
     28 C         143.6184  137.5192  155.3043 C.3     1  UNL1        0.0938
     29 C         142.7743  139.7182  156.4006 C.3     1  UNL1        0.0938
     30 C         141.5498  140.2430  155.7112 C.3     1  UNL1        0.0233
@<TRIPOS>BOND
     1    27    28    1
     2    28    24    1
     3    24    29    1
     4    29    30    1
     5    24    25   am
     6    25    26    2
     7    25    17    1
     8    17    18   ar
     9    18    19   ar
    10    19    20   ar
    11    20     1    1
    12     1     2    2
    13     2     3    1
    14     3     4    1
    15     4     5    1
    16     5     6    1
    17     6     7    1
    18     7     8    1
    19     3     9    1
    20     9    10    1
    21    10    11   ar
    22    11    12   ar
    23    12    13   ar
    24    13    14   ar
    25    14    15   ar
    26    20    21   ar
    27    21    22   ar
    28    22    23    1
    29    22    17   ar
    30    15     1    1
    31     8     3    1
    32    15    10   ar
    33     6    16    1
@<TRIPOS>MOLECULE
*****
 30 33 0 0 0
SMALL
GASTEIGER

@<TRIPOS>ATOM
      1 C         140.4297  142.3966  161.4800 C.2     1  UNL1        0.0020
      2 C         141.9045  142.1254  161.5196 C.2     1  UNL1        0.0130
      3 C         142.7164  142.5653  162.7016 C.3     1  UNL1        0.1542
      4 C         143.3792  141.8543  161.5592 C.3     1  UNL1        0.0614
      5 C         144.8539  141.5832  161.5988 C.3     1  UNL1        0.0725
      6 N         145.6659  142.0231  162.7809 N.3     1  UNL1       -0.2972
      7 C         145.0031  142.7340  163.9234 C.3     1  UNL1        0.0725
      8 C         143.5284  143.0051  163.8837 C.3     1  UNL1        0.0614
      9 O         142.0535  143.2762  163.8441 O.3     1  UNL1       -0.4785
     10 C         140.5788  143.5473  163.8045 C.ar    1  UNL1        0.1386
     11 C         139.9159  144.2583  164.9470 C.ar    1  UNL1        0.0369
     12 C         138.4412  144.5294  164.9073 C.ar    1  UNL1        0.0031
     13 C         137.6293  144.0896  163.7253 C.ar    1  UNL1        0.0002
     14 C         138.2921  143.3786  162.5828 C.ar    1  UNL1        0.0030
     15 C         139.7669  143.1075  162.6224 C.ar    1  UNL1        0.0338
     16 H         146.3893  142.6480  162.4252 H       1  UNL1        0.1233
     17 C         137.9939  141.0770  157.9337 C.ar    1  UNL1        0.0810
     18 C         138.2989  140.1074  159.0367 C.ar    1  UNL1        0.0068
     19 C         139.1109  140.5472  160.2188 C.ar    1  UNL1        0.0003
     20 C         139.6177  141.9567  160.2979 C.ar    1  UNL1        0.0021
     21 C         139.3127  142.9265  159.1949 C.ar    1  UNL1        0.0298
     22 C         138.5007  142.4867  158.0128 C.ar    1  UNL1        0.1445
     23 F         138.1957  143.4563  156.9098 F       1  UNL1       -0.2040
     24 N         137.8681  140.1909  155.4947 N.am    1  UNL1       -0.2760
     25 C         137.1819  140.6372  156.7517 C.2     1  UNL1        0.2512
     26 O         135.6838  140.6437  156.8266 O.2     1  UNL1       -0.2698
     27 C         136.5822  138.3312  154.2148 C.3     1  UNL1        0.0233
     28 C         137.0561  139.7511  154.3126 C.3     1  UNL1        0.0938
     29 C         139.3663  140.1844  155.4198 C.3     1  UNL1        0.0938
     30 C         140.1176  138.8917  155.5387 C.3     1  UNL1        0.0233
@<TRIPOS>BOND
     1    27    28    1
     2    28    24    1
     3    24    29    1
     4    29    30    1
     5    24    25   am
     6    25    26    2
     7    25    17    1
     8    17    18   ar
     9    18    19   ar
    10    19    20   ar
    11    20     1    1
    12     1     2    2
    13     2     3    1
    14     3     4    1
    15     4     5    1
    16     5     6    1
    17     6     7    1
    18     7     8    1
    19     3     9    1
    20     9    10    1
    21    10    11   ar
    22    11    12   ar
    23    12    13   ar
    24    13    14   ar
    25    14    15   ar
    26    20    21   ar
    27    21    22   ar
    28    22    23    1
    29    22    17   ar
    30    15     1    1
    31     8     3    1
    32    15    10   ar
    33     6    16    1
@<TRIPOS>MOLECULE
*****
 30 33 0 0 0
SMALL
GASTEIGER

@<TRIPOS>ATOM
      1 C         141.2939  140.1662  166.3275 C.2     1  UNL1        0.0020
      2 C         142.1371  140.9609  167.2802 C.2     1  UNL1        0.0130
      3 C         141.6589  141.2046  168.6810 C.3     1  UNL1        0.1542
      4 C         142.9802  141.7555  168.2329 C.3     1  UNL1        0.0614
      5 C         143.8232  142.5502  169.1856 C.3     1  UNL1        0.0725
      6 N         143.3451  142.7938  170.5864 N.3     1  UNL1       -0.2972
      7 C         142.0239  142.2428  171.0344 C.3     1  UNL1        0.0725
      8 C         141.1808  141.4482  170.0817 C.3     1  UNL1        0.0614
      9 O         140.3377  140.6535  169.1290 O.3     1  UNL1       -0.4785
     10 C         139.4946  139.8589  168.1763 C.ar    1  UNL1        0.1386
     11 C         138.1733  139.3078  168.6243 C.ar    1  UNL1        0.0369
     12 C         137.3302  138.5132  167.6715 C.ar    1  UNL1        0.0031
     13 C         137.8083  138.2696  166.2708 C.ar    1  UNL1        0.0002
     14 C         139.1295  138.8205  165.8228 C.ar    1  UNL1        0.0030
     15 C         139.9727  139.6152  166.7755 C.ar    1  UNL1        0.0338
     16 H         143.2996  143.8053  170.7102 H       1  UNL1        0.1233
     17 C         142.7282  139.4353  162.1253 C.ar    1  UNL1        0.0810
     18 C         142.7150  138.3120  163.1193 C.ar    1  UNL1        0.0068
     19 C         142.2369  138.5557  164.5201 C.ar    1  UNL1        0.0003
     20 C         141.7720  139.9226  164.9268 C.ar    1  UNL1        0.0021
     21 C         141.7852  141.0459  163.9327 C.ar    1  UNL1        0.0298
     22 C         142.2634  140.8023  162.5320 C.ar    1  UNL1        0.1445
     23 F         142.2766  141.9255  161.5380 F       1  UNL1       -0.2040
     24 N         142.2272  139.1855  159.5883 N.am    1  UNL1       -0.2760
     25 C         143.2064  139.1916  160.7246 C.2     1  UNL1        0.2512
     26 O         144.6637  138.9541  160.4602 O.2     1  UNL1       -0.2698
     27 C         143.4288  140.0246  157.4430 C.3     1  UNL1        0.0233
     28 C         142.7054  138.9418  158.1876 C.3     1  UNL1        0.0938
     29 C         140.7699  139.4230  159.8527 C.3     1  UNL1        0.0938
     30 C         139.7372  138.5592  159.1915 C.3     1  UNL1        0.0233
@<TRIPOS>BOND
     1    27    28    1
     2    28    24    1
     3    24    29    1
     4    29    30    1
     5    24    25   am
     6    25    26    2
     7    25    17    1
     8    17    18   ar
     9    18    19   ar
    10    19    20   ar
    11    20     1    1
    12     1     2    2
    13     2     3    1
    14     3     4    1
    15     4     5    1
    16     5     6    1
    17     6     7    1
    18     7     8    1
    19     3     9    1
    20     9    10    1
    21    10    11   ar
    22    11    12   ar
    23    12    13   ar
    24    13    14   ar
    25    14    15   ar
    26    20    21   ar
    27    21    22   ar
    28    22    23    1
    29    22    17   ar
    30    15     1    1
    31     8     3    1
    32    15    10   ar
    33     6    16    1
