@<TRIPOS>MOLECULE
*****
 31 34 0 0 0
SMALL
GASTEIGER

@<TRIPOS>ATOM
      1 O         141.3011  139.2993  163.0227 O.2     1  UNL1       -0.2734
      2 C         139.9525  139.0713  163.6385 C.2     1  UNL1        0.2420
      3 N         139.7422  139.3311  165.1009 N.am    1  UNL1       -0.2760
      4 C         138.3936  139.1031  165.7168 C.3     1  UNL1        0.0983
      5 C         138.1833  139.3629  167.1790 C.3     1  UNL1        0.0476
      6 C         139.3216  139.8507  168.0255 C.ar    1  UNL1       -0.0229
      7 C         139.1113  140.1105  169.4877 C.ar    1  UNL1       -0.0045
      8 C         140.2495  140.5983  170.3341 C.ar    1  UNL1       -0.0003
      9 C         141.5981  140.8263  169.7182 C.ar    1  UNL1       -0.0003
     10 C         141.8085  140.5665  168.2560 C.ar    1  UNL1       -0.0030
     11 C         140.6702  140.0787  167.4096 C.ar    1  UNL1       -0.0082
     12 C         140.8805  139.8189  165.9473 C.3     1  UNL1        0.0975
     13 C         142.2291  140.0469  165.3314 C.3     1  UNL1        0.0224
     14 C         143.2290  138.9299  165.2807 C.3     1  UNL1        0.0020
     15 C         144.5776  139.1579  164.6648 C.3     1  UNL1        0.0001
     16 C         144.9263  140.5029  164.0996 C.3     1  UNL1        0.0000
     17 C         143.9264  141.6198  164.1503 C.3     1  UNL1        0.0001
     18 C         142.5778  141.3918  164.7661 C.3     1  UNL1        0.0020
     19 C         138.8143  138.5836  162.7922 C.3     1  UNL1        0.1552
     20 N         137.7242  139.5296  162.3839 N.3     1  UNL1       -0.2879
     21 H         137.0935  139.6137  163.1811 H       1  UNL1        0.1238
     22 C         138.0650  140.9251  161.9521 C.3     1  UNL1        0.0961
     23 C         138.0053  142.0517  162.9406 C.3     1  UNL1        0.1027
     24 O         136.7063  141.3373  163.1699 O.3     1  UNL1       -0.3854
     25 C         137.3675  142.8604  164.0312 C.3     1  UNL1        0.0283
     26 C         137.8977  144.0818  164.7219 C.3     1  UNL1        0.0024
     27 C         139.1965  144.7961  164.4926 C.3     1  UNL1        0.0001
     28 C         140.2861  144.4656  163.5160 C.3     1  UNL1        0.0001
     29 C         140.3458  143.3389  162.5275 C.3     1  UNL1        0.0024
     30 C         139.3307  142.2647  162.2714 C.3     1  UNL1        0.0283
     31 H         136.2083  141.7884  163.8694 H       1  UNL1        0.2103
@<TRIPOS>BOND
     1     1     2    2
     2     2    19    1
     3    19    20    1
     4    20    22    1
     5    22    23    1
     6    23    24    1
     7    23    25    1
     8    25    26    1
     9    26    27    1
    10    27    28    1
    11    28    29    1
    12    29    30    1
    13     2     3   am
    14     3     4    1
    15     4     5    1
    16     5     6    1
    17     6     7   ar
    18     7     8   ar
    19     8     9   ar
    20     9    10   ar
    21    10    11   ar
    22    11    12    1
    23    12    13    1
    24    13    14    1
    25    14    15    1
    26    15    16    1
    27    16    17    1
    28    17    18    1
    29    30    23    1
    30    12     3    1
    31    18    13    1
    32    11     6   ar
    33    20    21    1
    34    24    31    1
@<TRIPOS>MOLECULE
*****
 31 34 0 0 0
SMALL
GASTEIGER

@<TRIPOS>ATOM
      1 O         143.3523  141.4519  162.6223 O.2     1  UNL1       -0.2734
      2 C         143.4827  140.1043  163.2682 C.2     1  UNL1        0.2420
      3 N         143.2608  139.9554  164.7442 N.am    1  UNL1       -0.2760
      4 C         143.3911  138.6079  165.3901 C.3     1  UNL1        0.0983
      5 C         143.1693  138.4589  166.8660 C.3     1  UNL1        0.0476
      6 C         142.8170  139.6576  167.6963 C.ar    1  UNL1       -0.0229
      7 C         142.5951  139.5087  169.1722 C.ar    1  UNL1       -0.0045
      8 C         142.2429  140.7073  170.0024 C.ar    1  UNL1       -0.0003
      9 C         142.1126  142.0549  169.3565 C.ar    1  UNL1       -0.0003
     10 C         142.3344  142.2038  167.8806 C.ar    1  UNL1       -0.0030
     11 C         142.6867  141.0052  167.0504 C.ar    1  UNL1       -0.0082
     12 C         142.9086  141.1541  165.5744 C.3     1  UNL1        0.0975
     13 C         142.7782  142.5016  164.9285 C.3     1  UNL1        0.0224
     14 C         141.4420  142.9697  164.4329 C.3     1  UNL1        0.0020
     15 C         141.3117  144.3172  163.7871 C.3     1  UNL1        0.0001
     16 C         142.5175  145.1967  163.6369 C.3     1  UNL1        0.0000
     17 C         143.8536  144.7287  164.1325 C.3     1  UNL1        0.0001
     18 C         143.9840  143.3811  164.7783 C.3     1  UNL1        0.0020
     19 C         143.8349  138.9057  162.4380 C.3     1  UNL1        0.1552
     20 N         142.7802  137.8967  162.0923 N.3     1  UNL1       -0.2879
     21 H         142.8565  137.1447  162.7771 H       1  UNL1        0.1238
     22 C         141.3369  138.3034  162.0546 C.3     1  UNL1        0.0961
     23 C         140.4771  138.1314  163.2716 C.3     1  UNL1        0.1027
     24 O         141.1960  136.8178  163.1824 O.3     1  UNL1       -0.3854
     25 C         139.9373  137.3748  164.4490 C.3     1  UNL1        0.0283
     26 C         138.9280  137.8214  165.4648 C.3     1  UNL1        0.0024
     27 C         138.2092  139.1349  165.5540 C.3     1  UNL1        0.0001
     28 C         138.3222  140.3263  164.6496 C.3     1  UNL1        0.0001
     29 C         139.1819  140.4983  163.4324 C.3     1  UNL1        0.0024
     30 C         140.1410  139.5215  162.8192 C.3     1  UNL1        0.0283
     31 H         140.9133  136.2443  163.9118 H       1  UNL1        0.2103
@<TRIPOS>BOND
     1     1     2    2
     2     2    19    1
     3    19    20    1
     4    20    22    1
     5    22    23    1
     6    23    24    1
     7    23    25    1
     8    25    26    1
     9    26    27    1
    10    27    28    1
    11    28    29    1
    12    29    30    1
    13     2     3   am
    14     3     4    1
    15     4     5    1
    16     5     6    1
    17     6     7   ar
    18     7     8   ar
    19     8     9   ar
    20     9    10   ar
    21    10    11   ar
    22    11    12    1
    23    12    13    1
    24    13    14    1
    25    14    15    1
    26    15    16    1
    27    16    17    1
    28    17    18    1
    29    30    23    1
    30    12     3    1
    31    18    13    1
    32    11     6   ar
    33    20    21    1
    34    24    31    1
@<TRIPOS>MOLECULE
*****
 31 34 0 0 0
SMALL
GASTEIGER

@<TRIPOS>ATOM
      1 O         139.9224  141.0501  162.7646 O.2     1  UNL1       -0.2734
      2 C         139.2262  140.0054  163.5855 C.2     1  UNL1        0.2420
      3 N         139.2338  140.0998  165.0826 N.am    1  UNL1       -0.2760
      4 C         138.5376  139.0551  165.9035 C.3     1  UNL1        0.0983
      5 C         138.5452  139.1495  167.4005 C.3     1  UNL1        0.0476
      6 C         139.2491  140.2886  168.0766 C.ar    1  UNL1       -0.0229
      7 C         139.2567  140.3830  169.5736 C.ar    1  UNL1       -0.0045
      8 C         139.9605  141.5221  170.2496 C.ar    1  UNL1       -0.0003
      9 C         140.6567  142.5668  169.4287 C.ar    1  UNL1       -0.0003
     10 C         140.6491  142.4724  167.9317 C.ar    1  UNL1       -0.0030
     11 C         139.9453  141.3333  167.2557 C.ar    1  UNL1       -0.0082
     12 C         139.9377  141.2389  165.7586 C.3     1  UNL1        0.0975
     13 C         140.6339  142.2836  164.9377 C.3     1  UNL1        0.0224
     14 C         139.9051  143.5325  164.5386 C.3     1  UNL1        0.0020
     15 C         140.6013  144.5772  163.7177 C.3     1  UNL1        0.0001
     16 C         142.0263  144.3730  163.2959 C.3     1  UNL1        0.0000
     17 C         142.7550  143.1241  163.6950 C.3     1  UNL1        0.0001
     18 C         142.0588  142.0794  164.5159 C.3     1  UNL1        0.0020
     19 C         138.5224  138.8663  162.9094 C.3     1  UNL1        0.1552
     20 N         139.2979  137.6593  162.4717 N.3     1  UNL1       -0.2879
     21 H         139.6266  137.8480  161.5247 H       1  UNL1        0.1238
     22 C         140.4901  137.2068  163.2617 C.3     1  UNL1        0.0961
     23 C         141.8210  137.8672  163.0556 C.3     1  UNL1        0.1027
     24 O         141.3617  137.5971  161.6534 O.3     1  UNL1       -0.3854
     25 C         142.9476  138.4074  162.2255 C.3     1  UNL1        0.0283
     26 C         144.2194  139.0571  162.6842 C.3     1  UNL1        0.0024
     27 C         144.6786  139.3271  164.0864 C.3     1  UNL1        0.0001
     28 C         143.9797  139.0140  165.3762 C.3     1  UNL1        0.0001
     29 C         142.6487  138.3536  165.5823 C.3     1  UNL1        0.0024
     30 C         141.6880  137.8432  164.5495 C.3     1  UNL1        0.0283
     31 H         142.0311  137.9143  161.0271 H       1  UNL1        0.2103
@<TRIPOS>BOND
     1     1     2    2
     2     2    19    1
     3    19    20    1
     4    20    22    1
     5    22    23    1
     6    23    24    1
     7    23    25    1
     8    25    26    1
     9    26    27    1
    10    27    28    1
    11    28    29    1
    12    29    30    1
    13     2     3   am
    14     3     4    1
    15     4     5    1
    16     5     6    1
    17     6     7   ar
    18     7     8   ar
    19     8     9   ar
    20     9    10   ar
    21    10    11   ar
    22    11    12    1
    23    12    13    1
    24    13    14    1
    25    14    15    1
    26    15    16    1
    27    16    17    1
    28    17    18    1
    29    30    23    1
    30    12     3    1
    31    18    13    1
    32    11     6   ar
    33    20    21    1
    34    24    31    1
@<TRIPOS>MOLECULE
*****
 31 34 0 0 0
SMALL
GASTEIGER

@<TRIPOS>ATOM
      1 O         140.8635  141.2243  162.8839 O.2     1  UNL1       -0.2734
      2 C         141.8248  140.1896  163.3892 C.2     1  UNL1        0.2420
      3 N         141.9852  139.9719  164.8647 N.am    1  UNL1       -0.2760
      4 C         142.9465  138.9372  165.3700 C.3     1  UNL1        0.0983
      5 C         143.1069  138.7195  166.8454 C.3     1  UNL1        0.0476
      6 C         142.3060  139.5365  167.8156 C.ar    1  UNL1       -0.0229
      7 C         142.4665  139.3188  169.2910 C.ar    1  UNL1       -0.0045
      8 C         141.6656  140.1358  170.2610 C.ar    1  UNL1       -0.0003
      9 C         140.7044  141.1706  169.7557 C.ar    1  UNL1       -0.0003
     10 C         140.5439  141.3883  168.2804 C.ar    1  UNL1       -0.0030
     11 C         141.3447  140.5712  167.3103 C.ar    1  UNL1       -0.0082
     12 C         141.1843  140.7889  165.8348 C.3     1  UNL1        0.0975
     13 C         140.2230  141.8236  165.3295 C.3     1  UNL1        0.0224
     14 C         138.8050  141.4432  165.0219 C.3     1  UNL1        0.0020
     15 C         137.8437  142.4780  164.5166 C.3     1  UNL1        0.0001
     16 C         138.3005  143.8930  164.3189 C.3     1  UNL1        0.0000
     17 C         139.7185  144.2733  164.6265 C.3     1  UNL1        0.0001
     18 C         140.6797  143.2386  165.1318 C.3     1  UNL1        0.0020
     19 C         142.6256  139.3726  162.4191 C.3     1  UNL1        0.1552
     20 N         144.0880  139.6497  162.2335 N.3     1  UNL1       -0.2879
     21 H         144.3859  139.1218  161.4131 H       1  UNL1        0.1238
     22 C         144.5657  141.0583  162.0390 C.3     1  UNL1        0.0961
     23 C         144.6087  142.0031  163.2032 C.3     1  UNL1        0.1027
     24 O         145.3329  140.7976  163.7249 O.3     1  UNL1       -0.3854
     25 C         144.9739  142.4115  164.5996 C.3     1  UNL1        0.0283
     26 C         144.6860  143.7057  165.3010 C.3     1  UNL1        0.0024
     27 C         143.9617  144.9112  164.7793 C.3     1  UNL1        0.0001
     28 C         143.3465  145.1203  163.4273 C.3     1  UNL1        0.0001
     29 C         143.3036  144.1754  162.2631 C.3     1  UNL1        0.0024
     30 C         143.8653  142.7881  162.1634 C.3     1  UNL1        0.0283
     31 H         145.6167  140.9608  164.6380 H       1  UNL1        0.2103
@<TRIPOS>BOND
     1     1     2    2
     2     2    19    1
     3    19    20    1
     4    20    22    1
     5    22    23    1
     6    23    24    1
     7    23    25    1
     8    25    26    1
     9    26    27    1
    10    27    28    1
    11    28    29    1
    12    29    30    1
    13     2     3   am
    14     3     4    1
    15     4     5    1
    16     5     6    1
    17     6     7   ar
    18     7     8   ar
    19     8     9   ar
    20     9    10   ar
    21    10    11   ar
    22    11    12    1
    23    12    13    1
    24    13    14    1
    25    14    15    1
    26    15    16    1
    27    16    17    1
    28    17    18    1
    29    30    23    1
    30    12     3    1
    31    18    13    1
    32    11     6   ar
    33    20    21    1
    34    24    31    1
@<TRIPOS>MOLECULE
*****
 31 34 0 0 0
SMALL
GASTEIGER

@<TRIPOS>ATOM
      1 O         143.8856  143.0446  166.9276 O.2     1  UNL1       -0.2734
      2 C         143.5662  142.5737  165.5397 C.2     1  UNL1        0.2420
      3 N         142.3962  141.6643  165.3069 N.am    1  UNL1       -0.2760
      4 C         142.0767  141.1935  163.9190 C.3     1  UNL1        0.0983
      5 C         140.9068  140.2841  163.6862 C.3     1  UNL1        0.0476
      6 C         140.0562  139.8456  164.8413 C.ar    1  UNL1       -0.0229
      7 C         138.8863  138.9362  164.6085 C.ar    1  UNL1       -0.0045
      8 C         138.0357  138.4977  165.7636 C.ar    1  UNL1       -0.0003
      9 C         138.3552  138.9685  167.1515 C.ar    1  UNL1       -0.0003
     10 C         139.5251  139.8779  167.3843 C.ar    1  UNL1       -0.0030
     11 C         140.3756  140.3164  166.2292 C.ar    1  UNL1       -0.0082
     12 C         141.5457  141.2258  166.4620 C.3     1  UNL1        0.0975
     13 C         141.8651  141.6967  167.8499 C.3     1  UNL1        0.0224
     14 C         141.1557  142.8896  168.4190 C.3     1  UNL1        0.0020
     15 C         141.4752  143.3604  169.8069 C.3     1  UNL1        0.0001
     16 C         142.5039  142.6383  170.6257 C.3     1  UNL1        0.0000
     17 C         143.2132  141.4455  170.0566 C.3     1  UNL1        0.0001
     18 C         142.8938  140.9746  168.6687 C.3     1  UNL1        0.0020
     19 C         144.4167  143.0122  164.3846 C.3     1  UNL1        0.1552
     20 N         144.0181  144.2077  163.5710 N.3     1  UNL1       -0.2879
     21 H         143.9518  143.8957  162.6022 H       1  UNL1        0.1238
     22 C         142.7425  144.9339  163.8803 C.3     1  UNL1        0.0961
     23 C         141.5157  144.6796  163.0555 C.3     1  UNL1        0.1027
     24 O         142.5735  144.9122  162.0176 O.3     1  UNL1       -0.3854
     25 C         140.7597  144.5288  161.7687 C.3     1  UNL1        0.0283
     26 C         139.3052  144.2214  161.5691 C.3     1  UNL1        0.0024
     27 C         138.2475  143.9888  162.6070 C.3     1  UNL1        0.0001
     28 C         138.3830  144.0063  164.1008 C.3     1  UNL1        0.0001
     29 C         139.6098  144.2606  164.9257 C.3     1  UNL1        0.0024
     30 C         141.0040  144.5602  164.4605 C.3     1  UNL1        0.0283
     31 H         142.1815  144.8356  161.1336 H       1  UNL1        0.2103
@<TRIPOS>BOND
     1     1     2    2
     2     2    19    1
     3    19    20    1
     4    20    22    1
     5    22    23    1
     6    23    24    1
     7    23    25    1
     8    25    26    1
     9    26    27    1
    10    27    28    1
    11    28    29    1
    12    29    30    1
    13     2     3   am
    14     3     4    1
    15     4     5    1
    16     5     6    1
    17     6     7   ar
    18     7     8   ar
    19     8     9   ar
    20     9    10   ar
    21    10    11   ar
    22    11    12    1
    23    12    13    1
    24    13    14    1
    25    14    15    1
    26    15    16    1
    27    16    17    1
    28    17    18    1
    29    30    23    1
    30    12     3    1
    31    18    13    1
    32    11     6   ar
    33    20    21    1
    34    24    31    1
@<TRIPOS>MOLECULE
*****
 31 34 0 0 0
SMALL
GASTEIGER

@<TRIPOS>ATOM
      1 O         143.0135  143.3127  165.1036 O.2     1  UNL1       -0.2734
      2 C         142.8684  142.8145  163.6962 C.2     1  UNL1        0.2420
      3 N         142.0464  141.5918  163.4144 N.am    1  UNL1       -0.2760
      4 C         141.9013  141.0936  162.0070 C.3     1  UNL1        0.0983
      5 C         141.0794  139.8710  161.7252 C.3     1  UNL1        0.0476
      6 C         140.4025  139.1464  162.8508 C.ar    1  UNL1       -0.0229
      7 C         139.5806  137.9237  162.5689 C.ar    1  UNL1       -0.0045
      8 C         138.9037  137.1993  163.6945 C.ar    1  UNL1       -0.0003
      9 C         139.0488  137.6974  165.1019 C.ar    1  UNL1       -0.0003
     10 C         139.8707  138.9201  165.3837 C.ar    1  UNL1       -0.0030
     11 C         140.5476  139.6446  164.2582 C.ar    1  UNL1       -0.0082
     12 C         141.3696  140.8673  164.5399 C.3     1  UNL1        0.0975
     13 C         141.5147  141.3655  165.9473 C.3     1  UNL1        0.0224
     14 C         140.5034  142.3177  166.5139 C.3     1  UNL1        0.0020
     15 C         140.6485  142.8159  167.9213 C.3     1  UNL1        0.0001
     16 C         141.8048  142.3619  168.7621 C.3     1  UNL1        0.0000
     17 C         142.8160  141.4098  168.1956 C.3     1  UNL1        0.0001
     18 C         142.6709  140.9116  166.7882 C.3     1  UNL1        0.0020
     19 C         143.5452  143.5390  162.5706 C.3     1  UNL1        0.1552
     20 N         142.9522  144.8065  162.0304 N.3     1  UNL1       -0.2879
     21 H         143.4493  145.0188  161.1654 H       1  UNL1        0.1238
     22 C         141.4871  144.8745  161.7158 C.3     1  UNL1        0.0961
     23 C         140.4794  144.8459  162.8265 C.3     1  UNL1        0.1027
     24 O         141.4642  145.8754  163.2958 O.3     1  UNL1       -0.3854
     25 C         139.9099  145.2754  164.1461 C.3     1  UNL1        0.0283
     26 C         138.6635  144.7943  164.8279 C.3     1  UNL1        0.0024
     27 C         137.6788  143.7648  164.3586 C.3     1  UNL1        0.0001
     28 C         137.6971  142.9621  163.0915 C.3     1  UNL1        0.0001
     29 C         138.7049  142.9908  161.9808 C.3     1  UNL1        0.0024
     30 C         139.9431  143.8291  161.8628 C.3     1  UNL1        0.0283
     31 H         141.1834  146.2227  164.1568 H       1  UNL1        0.2103
@<TRIPOS>BOND
     1     1     2    2
     2     2    19    1
     3    19    20    1
     4    20    22    1
     5    22    23    1
     6    23    24    1
     7    23    25    1
     8    25    26    1
     9    26    27    1
    10    27    28    1
    11    28    29    1
    12    29    30    1
    13     2     3   am
    14     3     4    1
    15     4     5    1
    16     5     6    1
    17     6     7   ar
    18     7     8   ar
    19     8     9   ar
    20     9    10   ar
    21    10    11   ar
    22    11    12    1
    23    12    13    1
    24    13    14    1
    25    14    15    1
    26    15    16    1
    27    16    17    1
    28    17    18    1
    29    30    23    1
    30    12     3    1
    31    18    13    1
    32    11     6   ar
    33    20    21    1
    34    24    31    1
@<TRIPOS>MOLECULE
*****
 31 34 0 0 0
SMALL
GASTEIGER

@<TRIPOS>ATOM
      1 O         137.9825  139.4962  162.9506 O.2     1  UNL1       -0.2734
      2 C         139.0467  139.8209  161.9446 C.2     1  UNL1        0.2420
      3 N         140.4942  139.7215  162.3254 N.am    1  UNL1       -0.2760
      4 C         141.5583  140.0462  161.3193 C.3     1  UNL1        0.0983
      5 C         143.0058  139.9468  161.7001 C.3     1  UNL1        0.0476
      6 C         143.3891  139.5226  163.0869 C.ar    1  UNL1       -0.0229
      7 C         144.8366  139.4232  163.4676 C.ar    1  UNL1       -0.0045
      8 C         145.2198  138.9991  164.8544 C.ar    1  UNL1       -0.0003
      9 C         144.1557  138.6744  165.8604 C.ar    1  UNL1       -0.0003
     10 C         142.7082  138.7738  165.4797 C.ar    1  UNL1       -0.0030
     11 C         142.3250  139.1979  164.0929 C.ar    1  UNL1       -0.0082
     12 C         140.8775  139.2973  163.7121 C.3     1  UNL1        0.0975
     13 C         139.8133  138.9726  164.7182 C.3     1  UNL1        0.0224
     14 C         139.2481  140.0560  165.5883 C.3     1  UNL1        0.0020
     15 C         138.1840  139.7313  166.5943 C.3     1  UNL1        0.0001
     16 C         137.6850  138.3232  166.7303 C.3     1  UNL1        0.0000
     17 C         138.2501  137.2399  165.8602 C.3     1  UNL1        0.0001
     18 C         139.3143  137.5646  164.8541 C.3     1  UNL1        0.0020
     19 C         138.6634  140.2450  160.5578 C.3     1  UNL1        0.1552
     20 N         138.3673  141.6869  160.2695 N.3     1  UNL1       -0.2879
     21 H         137.3876  141.8399  160.5088 H       1  UNL1        0.1238
     22 C         139.1537  142.7655  160.9538 C.3     1  UNL1        0.0961
     23 C         138.7109  143.2836  162.2900 C.3     1  UNL1        0.1027
     24 O         137.4441  143.3053  161.4871 O.3     1  UNL1       -0.3854
     25 C         137.7044  143.8114  163.2689 C.3     1  UNL1        0.0283
     26 C         137.9131  144.2172  164.6978 C.3     1  UNL1        0.0024
     27 C         139.1799  144.1955  165.5006 C.3     1  UNL1        0.0001
     28 C         140.5510  143.7626  165.0730 C.3     1  UNL1        0.0001
     29 C         140.9937  143.2444  163.7367 C.3     1  UNL1        0.0024
     30 C         140.1749  143.0313  162.4982 C.3     1  UNL1        0.0283
     31 H         136.7178  143.6371  162.0379 H       1  UNL1        0.2103
@<TRIPOS>BOND
     1     1     2    2
     2     2    19    1
     3    19    20    1
     4    20    22    1
     5    22    23    1
     6    23    24    1
     7    23    25    1
     8    25    26    1
     9    26    27    1
    10    27    28    1
    11    28    29    1
    12    29    30    1
    13     2     3   am
    14     3     4    1
    15     4     5    1
    16     5     6    1
    17     6     7   ar
    18     7     8   ar
    19     8     9   ar
    20     9    10   ar
    21    10    11   ar
    22    11    12    1
    23    12    13    1
    24    13    14    1
    25    14    15    1
    26    15    16    1
    27    16    17    1
    28    17    18    1
    29    30    23    1
    30    12     3    1
    31    18    13    1
    32    11     6   ar
    33    20    21    1
    34    24    31    1
@<TRIPOS>MOLECULE
*****
 31 34 0 0 0
SMALL
GASTEIGER

@<TRIPOS>ATOM
      1 O         142.8079  140.5939  160.9787 O.2     1  UNL1       -0.2734
      2 C         143.1619  141.9361  161.5472 C.2     1  UNL1        0.2420
      3 N         142.1562  142.6947  162.3616 N.am    1  UNL1       -0.2760
      4 C         142.5102  144.0369  162.9300 C.3     1  UNL1        0.0983
      5 C         141.5046  144.7954  163.7444 C.3     1  UNL1        0.0476
      6 C         140.1448  144.2117  163.9904 C.ar    1  UNL1       -0.0229
      7 C         139.1392  144.9703  164.8047 C.ar    1  UNL1       -0.0045
      8 C         137.7795  144.3866  165.0506 C.ar    1  UNL1       -0.0003
      9 C         137.4254  143.0444  164.4822 C.ar    1  UNL1       -0.0003
     10 C         138.4311  142.2858  163.6678 C.ar    1  UNL1       -0.0030
     11 C         139.7908  142.8695  163.4219 C.ar    1  UNL1       -0.0082
     12 C         140.7965  142.1110  162.6075 C.3     1  UNL1        0.0975
     13 C         140.4425  140.7688  162.0390 C.3     1  UNL1        0.0224
     14 C         140.7243  139.5231  162.8258 C.3     1  UNL1        0.0020
     15 C         140.3703  138.1809  162.2573 C.3     1  UNL1        0.0001
     16 C         139.7344  138.0844  160.9021 C.3     1  UNL1        0.0000
     17 C         139.4526  139.3300  160.1155 C.3     1  UNL1        0.0001
     18 C         139.8066  140.6722  160.6839 C.3     1  UNL1        0.0020
     19 C         144.5216  142.5198  161.3013 C.3     1  UNL1        0.1552
     20 N         145.6884  142.0806  162.1354 N.3     1  UNL1       -0.2879
     21 H         146.4422  142.7451  161.9604 H       1  UNL1        0.1238
     22 C         145.5461  141.9693  163.6245 C.3     1  UNL1        0.0961
     23 C         144.7843  140.8234  164.2216 C.3     1  UNL1        0.1027
     24 O         145.6420  140.1525  163.1899 O.3     1  UNL1       -0.3854
     25 C         144.4041  139.3789  164.3596 C.3     1  UNL1        0.0283
     26 C         143.4114  138.7586  165.2976 C.3     1  UNL1        0.0024
     27 C         142.5538  139.4296  166.3292 C.3     1  UNL1        0.0001
     28 C         142.4770  140.8865  166.6777 C.3     1  UNL1        0.0001
     29 C         143.2389  142.0324  166.0806 C.3     1  UNL1        0.0024
     30 C         144.2657  142.0043  164.9875 C.3     1  UNL1        0.0283
     31 H         145.4697  139.1980  163.1974 H       1  UNL1        0.2103
@<TRIPOS>BOND
     1     1     2    2
     2     2    19    1
     3    19    20    1
     4    20    22    1
     5    22    23    1
     6    23    24    1
     7    23    25    1
     8    25    26    1
     9    26    27    1
    10    27    28    1
    11    28    29    1
    12    29    30    1
    13     2     3   am
    14     3     4    1
    15     4     5    1
    16     5     6    1
    17     6     7   ar
    18     7     8   ar
    19     8     9   ar
    20     9    10   ar
    21    10    11   ar
    22    11    12    1
    23    12    13    1
    24    13    14    1
    25    14    15    1
    26    15    16    1
    27    16    17    1
    28    17    18    1
    29    30    23    1
    30    12     3    1
    31    18    13    1
    32    11     6   ar
    33    20    21    1
    34    24    31    1
@<TRIPOS>MOLECULE
*****
 31 34 0 0 0
SMALL
GASTEIGER

@<TRIPOS>ATOM
      1 O         141.2561  138.1763  165.2553 O.2     1  UNL1       -0.2734
      2 C         140.8657  138.4744  163.8380 C.2     1  UNL1        0.2420
      3 N         140.3909  139.8472  163.4637 N.am    1  UNL1       -0.2760
      4 C         140.0005  140.1454  162.0464 C.3     1  UNL1        0.0983
      5 C         139.5257  141.5181  161.6722 C.3     1  UNL1        0.0476
      6 C         139.4413  142.5928  162.7153 C.ar    1  UNL1       -0.0229
      7 C         138.9666  143.9656  162.3410 C.ar    1  UNL1       -0.0045
      8 C         138.8822  145.0402  163.3841 C.ar    1  UNL1       -0.0003
      9 C         139.2726  144.7421  164.8014 C.ar    1  UNL1       -0.0003
     10 C         139.7473  143.3693  165.1756 C.ar    1  UNL1       -0.0030
     11 C         139.8317  142.2947  164.1326 C.ar    1  UNL1       -0.0082
     12 C         140.3065  140.9219  164.5068 C.3     1  UNL1        0.0975
     13 C         140.6969  140.6238  165.9241 C.3     1  UNL1        0.0224
     14 C         139.6546  140.1986  166.9155 C.3     1  UNL1        0.0020
     15 C         140.0450  139.9004  168.3328 C.3     1  UNL1        0.0001
     16 C         141.4777  140.0275  168.7587 C.3     1  UNL1        0.0000
     17 C         142.5199  140.4527  167.7673 C.3     1  UNL1        0.0001
     18 C         142.1295  140.7508  166.3500 C.3     1  UNL1        0.0020
     19 C         140.9501  137.3998  162.7949 C.3     1  UNL1        0.1552
     20 N         142.0272  137.4496  161.7522 N.3     1  UNL1       -0.2879
     21 H         141.6866  138.0554  161.0057 H       1  UNL1        0.1238
     22 C         143.3990  137.9372  162.1137 C.3     1  UNL1        0.0961
     23 C         143.7689  139.3728  161.8855 C.3     1  UNL1        0.1027
     24 O         143.0555  139.0064  160.6179 O.3     1  UNL1       -0.3854
     25 C         143.8214  140.6454  161.0931 C.3     1  UNL1        0.0283
     26 C         144.4356  141.9598  161.4742 C.3     1  UNL1        0.0024
     27 C         145.1490  142.3261  162.7418 C.3     1  UNL1        0.0001
     28 C         145.4244  141.4687  163.9414 C.3     1  UNL1        0.0001
     29 C         145.0545  140.0330  164.1696 C.3     1  UNL1        0.0024
     30 C         144.3177  139.1002  163.2547 C.3     1  UNL1        0.0283
     31 H         143.0338  139.7742  160.0255 H       1  UNL1        0.2103
@<TRIPOS>BOND
     1     1     2    2
     2     2    19    1
     3    19    20    1
     4    20    22    1
     5    22    23    1
     6    23    24    1
     7    23    25    1
     8    25    26    1
     9    26    27    1
    10    27    28    1
    11    28    29    1
    12    29    30    1
    13     2     3   am
    14     3     4    1
    15     4     5    1
    16     5     6    1
    17     6     7   ar
    18     7     8   ar
    19     8     9   ar
    20     9    10   ar
    21    10    11   ar
    22    11    12    1
    23    12    13    1
    24    13    14    1
    25    14    15    1
    26    15    16    1
    27    16    17    1
    28    17    18    1
    29    30    23    1
    30    12     3    1
    31    18    13    1
    32    11     6   ar
    33    20    21    1
    34    24    31    1
