@<TRIPOS>MOLECULE
*****
 22 24 0 0 0
SMALL
GASTEIGER

@<TRIPOS>ATOM
      1 C         140.8001  140.6451  165.5494 C.ar    1  UNL1        0.0525
      2 C         139.8869  139.8928  164.6274 C.ar    1  UNL1        0.0046
      3 C         138.6943  139.1690  165.1790 C.ar    1  UNL1       -0.0002
      4 C         138.4151  139.1976  166.6525 C.ar    1  UNL1       -0.0039
      5 C         139.3284  139.9500  167.5744 C.ar    1  UNL1       -0.0161
      6 C         140.5209  140.6737  167.0229 C.ar    1  UNL1        0.0007
      7 C         143.0364  145.0414  163.9149 C.3     1  UNL1        0.0473
      8 C         143.1107  143.5670  164.1806 C.3     1  UNL1        0.1695
      9 C         144.3775  142.8163  163.8949 C.3     1  UNL1        0.0661
     10 C         144.4519  141.3419  164.1606 C.3     1  UNL1        0.0912
     11 C         145.8373  141.5827  163.6384 C.3     1  UNL1        0.0246
     12 C         145.0074  139.9512  164.2450 C.3     1  UNL1        0.0246
     13 N         143.2594  140.6182  164.7121 N.2     1  UNL1       -0.2416
     14 C         141.9926  141.3688  164.9979 C.2     1  UNL1        0.2200
     15 O         141.9183  142.8432  164.7321 O.2     1  UNL1       -0.4642
     16 C         139.0491  139.9786  169.0479 C.3     1  UNL1        0.0715
     17 C         140.0484  140.5836  169.9891 C.ar    1  UNL1        0.0586
     18 C         140.0188  141.9842  170.5252 C.ar    1  UNL1        0.1134
     19 N         141.2047  142.1605  171.4267 N.ar    1  UNL1       -0.2229
     20 C         141.9671  140.8688  171.4477 C.ar    1  UNL1        0.1748
     21 N         141.2524  139.8942  170.5592 N.ar    1  UNL1       -0.3379
     22 H         141.5256  138.9653  170.3814 H       1  UNL1        0.1672
@<TRIPOS>BOND
     1     7     8    1
     2     8     9    1
     3     9    10    1
     4    10    11    1
     5    10    12    1
     6    10    13    1
     7    13    14    2
     8    14     1    1
     9     1     2   ar
    10     2     3   ar
    11     3     4   ar
    12     4     5   ar
    13     5    16    1
    14    16    17    1
    15    17    18   ar
    16    18    19   ar
    17    19    20   ar
    18    20    21   ar
    19     5     6   ar
    20    14    15    1
    21    15     8    1
    22     6     1   ar
    23    21    17   ar
    24    21    22    1
@<TRIPOS>MOLECULE
*****
 22 24 0 0 0
SMALL
GASTEIGER

@<TRIPOS>ATOM
      1 C         140.2276  143.0921  165.3946 C.ar    1  UNL1        0.0525
      2 C         139.1312  143.9468  164.8313 C.ar    1  UNL1        0.0046
      3 C         139.4541  145.0208  163.8351 C.ar    1  UNL1       -0.0002
      4 C         140.8734  145.2400  163.4022 C.ar    1  UNL1       -0.0039
      5 C         141.9698  144.3852  163.9655 C.ar    1  UNL1       -0.0161
      6 C         141.6469  143.3113  164.9616 C.ar    1  UNL1        0.0007
      7 C         138.0283  138.5239  166.5328 C.3     1  UNL1        0.0473
      8 C         138.8050  139.7340  166.9598 C.3     1  UNL1        0.1695
      9 C         139.2589  139.8702  168.3830 C.3     1  UNL1        0.0661
     10 C         140.0356  141.0803  168.8100 C.3     1  UNL1        0.0912
     11 C         139.9752  140.3369  170.1115 C.3     1  UNL1        0.0246
     12 C         140.7913  142.0321  169.6891 C.3     1  UNL1        0.0246
     13 N         140.3585  142.1542  167.8139 N.2     1  UNL1       -0.2416
     14 C         139.9047  142.0181  166.3908 C.2     1  UNL1        0.2200
     15 O         139.1279  140.8080  165.9637 O.2     1  UNL1       -0.4642
     16 C         143.3892  144.6044  163.5326 C.3     1  UNL1        0.0715
     17 C         144.2970  143.4301  163.3156 C.ar    1  UNL1        0.0586
     18 C         144.6044  142.7854  161.9966 C.ar    1  UNL1        0.1134
     19 N         145.5542  141.6512  162.2452 N.ar    1  UNL1       -0.2229
     20 C         145.8336  141.5951  163.7180 C.ar    1  UNL1        0.1748
     21 N         145.0566  142.6945  164.3794 N.ar    1  UNL1       -0.3379
     22 H         145.0470  142.8976  165.3427 H       1  UNL1        0.1672
@<TRIPOS>BOND
     1     7     8    1
     2     8     9    1
     3     9    10    1
     4    10    11    1
     5    10    12    1
     6    10    13    1
     7    13    14    2
     8    14     1    1
     9     1     2   ar
    10     2     3   ar
    11     3     4   ar
    12     4     5   ar
    13     5    16    1
    14    16    17    1
    15    17    18   ar
    16    18    19   ar
    17    19    20   ar
    18    20    21   ar
    19     5     6   ar
    20    14    15    1
    21    15     8    1
    22     6     1   ar
    23    21    17   ar
    24    21    22    1
@<TRIPOS>MOLECULE
*****
 22 24 0 0 0
SMALL
GASTEIGER

@<TRIPOS>ATOM
      1 C         141.8227  142.2294  165.7793 C.ar    1  UNL1        0.0525
      2 C         143.2866  141.9032  165.7591 C.ar    1  UNL1        0.0046
      3 C         144.2425  142.7901  165.0174 C.ar    1  UNL1       -0.0002
      4 C         143.7343  144.0030  164.2960 C.ar    1  UNL1       -0.0039
      5 C         142.2703  144.3291  164.3162 C.ar    1  UNL1       -0.0161
      6 C         141.3145  143.4423  165.0578 C.ar    1  UNL1        0.0007
      7 C         139.9836  140.3470  170.2597 C.3     1  UNL1        0.0473
      8 C         139.9474  140.4014  168.7612 C.3     1  UNL1        0.1695
      9 C         138.9553  139.5690  168.0042 C.3     1  UNL1        0.0661
     10 C         138.9191  139.6234  166.5057 C.3     1  UNL1        0.0912
     11 C         137.8179  138.6364  166.7572 C.3     1  UNL1        0.0246
     12 C         138.5003  139.3350  165.0945 C.3     1  UNL1        0.0246
     13 N         139.8748  140.5101  165.7640 N.2     1  UNL1       -0.2416
     14 C         140.8669  141.3425  166.5209 C.2     1  UNL1        0.2200
     15 O         140.9031  141.2881  168.0195 O.2     1  UNL1       -0.4642
     16 C         141.7621  145.5421  163.5948 C.3     1  UNL1        0.0715
     17 C         141.2656  145.4227  162.1843 C.ar    1  UNL1        0.0586
     18 C         139.9042  145.8163  161.6926 C.ar    1  UNL1        0.1134
     19 N         139.8405  145.5255  160.2224 N.ar    1  UNL1       -0.2229
     20 C         141.1625  144.9523  159.8055 C.ar    1  UNL1        0.1748
     21 N         142.0432  144.8888  161.0181 N.ar    1  UNL1       -0.3379
     22 H         142.9691  144.5552  161.0439 H       1  UNL1        0.1672
@<TRIPOS>BOND
     1     7     8    1
     2     8     9    1
     3     9    10    1
     4    10    11    1
     5    10    12    1
     6    10    13    1
     7    13    14    2
     8    14     1    1
     9     1     2   ar
    10     2     3   ar
    11     3     4   ar
    12     4     5   ar
    13     5    16    1
    14    16    17    1
    15    17    18   ar
    16    18    19   ar
    17    19    20   ar
    18    20    21   ar
    19     5     6   ar
    20    14    15    1
    21    15     8    1
    22     6     1   ar
    23    21    17   ar
    24    21    22    1
@<TRIPOS>MOLECULE
*****
 22 24 0 0 0
SMALL
GASTEIGER

@<TRIPOS>ATOM
      1 C         141.8451  142.5572  165.8033 C.ar    1  UNL1        0.0525
      2 C         143.3305  142.4292  165.9689 C.ar    1  UNL1        0.0046
      3 C         144.2510  143.3340  165.2046 C.ar    1  UNL1       -0.0002
      4 C         143.6862  144.3667  164.2748 C.ar    1  UNL1       -0.0039
      5 C         142.2008  144.4946  164.1093 C.ar    1  UNL1       -0.0161
      6 C         141.2803  143.5899  164.8735 C.ar    1  UNL1        0.0007
      7 C         138.5627  138.5307  165.9150 C.3     1  UNL1        0.0473
      8 C         139.2834  139.6392  166.6234 C.3     1  UNL1        0.1695
      9 C         139.0835  139.8429  168.0959 C.3     1  UNL1        0.0661
     10 C         139.8042  140.9515  168.8043 C.3     1  UNL1        0.0912
     11 C         139.0420  140.3604  169.9531 C.3     1  UNL1        0.0246
     12 C         140.2601  141.8547  169.9117 C.3     1  UNL1        0.0246
     13 N         140.7247  141.8562  168.0402 N.2     1  UNL1       -0.2416
     14 C         140.9246  141.6524  166.5676 C.2     1  UNL1        0.2200
     15 O         140.2039  140.5439  165.8592 O.2     1  UNL1       -0.4642
     16 C         141.6360  145.5274  163.1795 C.3     1  UNL1        0.0715
     17 C         141.0679  145.1130  161.8545 C.ar    1  UNL1        0.0586
     18 C         139.7079  144.5238  161.6238 C.ar    1  UNL1        0.1134
     19 N         139.5594  144.2618  160.1543 N.ar    1  UNL1       -0.2229
     20 C         140.8278  144.6891  159.4768 C.ar    1  UNL1        0.1748
     21 N         141.7600  145.2152  160.5276 N.ar    1  UNL1       -0.3379
     22 H         142.6669  145.5659  160.3735 H       1  UNL1        0.1672
@<TRIPOS>BOND
     1     7     8    1
     2     8     9    1
     3     9    10    1
     4    10    11    1
     5    10    12    1
     6    10    13    1
     7    13    14    2
     8    14     1    1
     9     1     2   ar
    10     2     3   ar
    11     3     4   ar
    12     4     5   ar
    13     5    16    1
    14    16    17    1
    15    17    18   ar
    16    18    19   ar
    17    19    20   ar
    18    20    21   ar
    19     5     6   ar
    20    14    15    1
    21    15     8    1
    22     6     1   ar
    23    21    17   ar
    24    21    22    1
@<TRIPOS>MOLECULE
*****
 22 24 0 0 0
SMALL
GASTEIGER

@<TRIPOS>ATOM
      1 C         140.7199  139.5638  165.7348 C.ar    1  UNL1        0.0525
      2 C         139.5613  138.7866  165.1840 C.ar    1  UNL1        0.0046
      3 C         138.3359  138.5718  166.0222 C.ar    1  UNL1       -0.0002
      4 C         138.2693  139.1343  167.4112 C.ar    1  UNL1       -0.0039
      5 C         139.4281  139.9115  167.9620 C.ar    1  UNL1       -0.0161
      6 C         140.6533  140.1263  167.1238 C.ar    1  UNL1        0.0007
      7 C         143.8521  138.0539  161.8735 C.3     1  UNL1        0.0473
      8 C         143.5113  139.0236  162.9660 C.3     1  UNL1        0.1695
      9 C         144.3958  140.2081  163.2203 C.3     1  UNL1        0.0661
     10 C         144.0550  141.1778  164.3128 C.3     1  UNL1        0.0912
     11 C         145.3138  141.8049  163.7912 C.3     1  UNL1        0.0246
     12 C         144.1515  142.3653  165.2241 C.3     1  UNL1        0.0246
     13 N         142.8298  140.9630  165.1510 N.2     1  UNL1       -0.2416
     14 C         141.9453  139.7786  164.8967 C.2     1  UNL1        0.2200
     15 O         142.2860  138.8089  163.8042 O.2     1  UNL1       -0.4642
     16 C         139.3615  140.4740  169.3509 C.3     1  UNL1        0.0715
     17 C         140.3651  141.4966  169.7949 C.ar    1  UNL1        0.0586
     18 C         140.2250  142.9842  169.6637 C.ar    1  UNL1        0.1134
     19 N         141.4583  143.6182  170.2357 N.ar    1  UNL1       -0.2229
     20 C         142.3606  142.5222  170.7204 C.ar    1  UNL1        0.1748
     21 N         141.6849  141.2110  170.4480 N.ar    1  UNL1       -0.3379
     22 H         142.0445  140.3196  170.6605 H       1  UNL1        0.1672
@<TRIPOS>BOND
     1     7     8    1
     2     8     9    1
     3     9    10    1
     4    10    11    1
     5    10    12    1
     6    10    13    1
     7    13    14    2
     8    14     1    1
     9     1     2   ar
    10     2     3   ar
    11     3     4   ar
    12     4     5   ar
    13     5    16    1
    14    16    17    1
    15    17    18   ar
    16    18    19   ar
    17    19    20   ar
    18    20    21   ar
    19     5     6   ar
    20    14    15    1
    21    15     8    1
    22     6     1   ar
    23    21    17   ar
    24    21    22    1
@<TRIPOS>MOLECULE
*****
 22 24 0 0 0
SMALL
GASTEIGER

@<TRIPOS>ATOM
      1 C         139.8594  141.7170  165.2435 C.ar    1  UNL1        0.0525
      2 C         138.8605  140.8880  164.4918 C.ar    1  UNL1        0.0046
      3 C         138.1782  139.7374  165.1707 C.ar    1  UNL1       -0.0002
      4 C         138.4949  139.4159  166.6012 C.ar    1  UNL1       -0.0039
      5 C         139.4939  140.2449  167.3528 C.ar    1  UNL1       -0.0161
      6 C         140.1761  141.3954  166.6740 C.ar    1  UNL1        0.0007
      7 C         139.6456  145.8811  162.1429 C.3     1  UNL1        0.0473
      8 C         140.4347  144.9496  163.0143 C.3     1  UNL1        0.1695
      9 C         141.9061  145.1686  163.2070 C.3     1  UNL1        0.0661
     10 C         142.6952  144.2371  164.0785 C.3     1  UNL1        0.0912
     11 C         143.7826  145.1775  163.6507 C.3     1  UNL1        0.0246
     12 C         143.8621  143.6322  164.8014 C.3     1  UNL1        0.0246
     13 N         142.0130  143.0865  164.7573 N.2     1  UNL1       -0.2416
     14 C         140.5417  142.8675  164.5647 C.2     1  UNL1        0.2200
     15 O         139.7525  143.7991  163.6932 O.2     1  UNL1       -0.4642
     16 C         139.8106  139.9233  168.7833 C.3     1  UNL1        0.0715
     17 C         140.4478  140.9591  169.6615 C.ar    1  UNL1        0.0586
     18 C         139.7584  142.1446  170.2693 C.ar    1  UNL1        0.1134
     19 N         140.7707  142.9094  171.0696 N.ar    1  UNL1       -0.2229
     20 C         142.0857  142.1965  170.9563 C.ar    1  UNL1        0.1748
     21 N         141.8860  140.9912  170.0861 N.ar    1  UNL1       -0.3379
     22 H         142.5776  140.3361  169.8374 H       1  UNL1        0.1672
@<TRIPOS>BOND
     1     7     8    1
     2     8     9    1
     3     9    10    1
     4    10    11    1
     5    10    12    1
     6    10    13    1
     7    13    14    2
     8    14     1    1
     9     1     2   ar
    10     2     3   ar
    11     3     4   ar
    12     4     5   ar
    13     5    16    1
    14    16    17    1
    15    17    18   ar
    16    18    19   ar
    17    19    20   ar
    18    20    21   ar
    19     5     6   ar
    20    14    15    1
    21    15     8    1
    22     6     1   ar
    23    21    17   ar
    24    21    22    1
@<TRIPOS>MOLECULE
*****
 22 24 0 0 0
SMALL
GASTEIGER

@<TRIPOS>ATOM
      1 C         140.6541  140.7828  165.4225 C.ar    1  UNL1        0.0525
      2 C         139.7934  139.9765  164.4957 C.ar    1  UNL1        0.0046
      3 C         138.6679  139.1510  165.0453 C.ar    1  UNL1       -0.0002
      4 C         138.4033  139.1318  166.5216 C.ar    1  UNL1       -0.0039
      5 C         139.2641  139.9381  167.4484 C.ar    1  UNL1       -0.0161
      6 C         140.3895  140.7636  166.8989 C.ar    1  UNL1        0.0007
      7 C         145.6111  141.2028  163.9218 C.3     1  UNL1        0.0473
      8 C         144.2580  141.8183  164.1226 C.3     1  UNL1        0.1695
      9 C         144.0304  143.2593  163.7740 C.3     1  UNL1        0.0661
     10 C         142.6773  143.8749  163.9748 C.3     1  UNL1        0.0912
     11 C         143.4228  145.0567  163.4293 C.3     1  UNL1        0.0246
     12 C         141.5832  144.9009  163.9862 C.3     1  UNL1        0.0246
     13 N         141.5519  143.0494  164.5243 N.2     1  UNL1       -0.2416
     14 C         141.7796  141.6084  164.8730 C.2     1  UNL1        0.2200
     15 O         143.1326  140.9928  164.6721 O.2     1  UNL1       -0.4642
     16 C         138.9995  139.9189  168.9248 C.3     1  UNL1        0.0715
     17 C         139.9312  140.6272  169.8630 C.ar    1  UNL1        0.0586
     18 C         139.8450  142.0684  170.2700 C.ar    1  UNL1        0.1134
     19 N         140.9732  142.3506  171.2175 N.ar    1  UNL1       -0.2229
     20 C         141.7566  141.0838  171.3960 C.ar    1  UNL1        0.1748
     21 N         141.1125  140.0188  170.5588 N.ar    1  UNL1       -0.3379
     22 H         141.4125  139.0844  170.4800 H       1  UNL1        0.1672
@<TRIPOS>BOND
     1     7     8    1
     2     8     9    1
     3     9    10    1
     4    10    11    1
     5    10    12    1
     6    10    13    1
     7    13    14    2
     8    14     1    1
     9     1     2   ar
    10     2     3   ar
    11     3     4   ar
    12     4     5   ar
    13     5    16    1
    14    16    17    1
    15    17    18   ar
    16    18    19   ar
    17    19    20   ar
    18    20    21   ar
    19     5     6   ar
    20    14    15    1
    21    15     8    1
    22     6     1   ar
    23    21    17   ar
    24    21    22    1
@<TRIPOS>MOLECULE
*****
 22 24 0 0 0
SMALL
GASTEIGER

@<TRIPOS>ATOM
      1 C         140.1847  143.0719  165.1886 C.ar    1  UNL1        0.0525
      2 C         139.1429  144.0329  164.6976 C.ar    1  UNL1        0.0046
      3 C         139.5400  145.1924  163.8328 C.ar    1  UNL1       -0.0002
      4 C         140.9791  145.3909  163.4590 C.ar    1  UNL1       -0.0039
      5 C         142.0210  144.4298  163.9500 C.ar    1  UNL1       -0.0161
      6 C         141.6238  143.2704  164.8148 C.ar    1  UNL1        0.0007
      7 C         140.1400  140.7222  169.8229 C.3     1  UNL1        0.0473
      8 C         139.7652  140.7376  168.3706 C.3     1  UNL1        0.1695
      9 C         138.9933  139.5935  167.7831 C.3     1  UNL1        0.0661
     10 C         138.6185  139.6089  166.3307 C.3     1  UNL1        0.0912
     11 C         138.0189  138.2965  166.7406 C.3     1  UNL1        0.0246
     12 C         138.0355  139.1684  165.0208 C.3     1  UNL1        0.0246
     13 N         139.0156  140.7683  165.4659 N.2     1  UNL1       -0.2416
     14 C         139.7876  141.9124  166.0534 C.2     1  UNL1        0.2200
     15 O         140.1623  141.8970  167.5058 O.2     1  UNL1       -0.4642
     16 C         143.4600  144.6283  163.5761 C.3     1  UNL1        0.0715
     17 C         144.3497  143.4400  163.3607 C.ar    1  UNL1        0.0586
     18 C         144.6633  142.8014  162.0401 C.ar    1  UNL1        0.1134
     19 N         145.5894  141.6483  162.2911 N.ar    1  UNL1       -0.2229
     20 C         145.8481  141.5744  163.7669 C.ar    1  UNL1        0.1748
     21 N         145.0819  142.6817  164.4278 N.ar    1  UNL1       -0.3379
     22 H         145.0630  142.8766  165.3926 H       1  UNL1        0.1672
@<TRIPOS>BOND
     1     7     8    1
     2     8     9    1
     3     9    10    1
     4    10    11    1
     5    10    12    1
     6    10    13    1
     7    13    14    2
     8    14     1    1
     9     1     2   ar
    10     2     3   ar
    11     3     4   ar
    12     4     5   ar
    13     5    16    1
    14    16    17    1
    15    17    18   ar
    16    18    19   ar
    17    19    20   ar
    18    20    21   ar
    19     5     6   ar
    20    14    15    1
    21    15     8    1
    22     6     1   ar
    23    21    17   ar
    24    21    22    1
@<TRIPOS>MOLECULE
*****
 22 24 0 0 0
SMALL
GASTEIGER

@<TRIPOS>ATOM
      1 C         140.5394  139.5598  165.7513 C.ar    1  UNL1        0.0525
      2 C         139.3443  138.7917  165.2699 C.ar    1  UNL1        0.0046
      3 C         138.1696  138.5849  166.1795 C.ar    1  UNL1       -0.0002
      4 C         138.1900  139.1461  167.5704 C.ar    1  UNL1       -0.0039
      5 C         139.3852  139.9142  168.0517 C.ar    1  UNL1       -0.0161
      6 C         140.5599  140.1210  167.1422 C.ar    1  UNL1        0.0007
      7 C         144.8338  142.1922  164.4750 C.3     1  UNL1        0.0473
      8 C         143.8613  141.0828  164.2036 C.3     1  UNL1        0.1695
      9 C         144.0636  140.1803  163.0227 C.3     1  UNL1        0.0661
     10 C         143.0912  139.0710  162.7513 C.3     1  UNL1        0.0912
     11 C         144.0430  138.8681  161.6099 C.3     1  UNL1        0.0246
     12 C         142.4494  137.8911  162.0835 C.3     1  UNL1        0.0246
     13 N         141.9165  138.8641  163.6608 N.2     1  UNL1       -0.2416
     14 C         141.7142  139.7666  164.8417 C.2     1  UNL1        0.2200
     15 O         142.6866  140.8760  165.1131 O.2     1  UNL1       -0.4642
     16 C         139.4057  140.4755  169.4426 C.3     1  UNL1        0.0715
     17 C         140.4114  141.5249  169.8132 C.ar    1  UNL1        0.0586
     18 C         140.2002  143.0088  169.7527 C.ar    1  UNL1        0.1134
     19 N         141.4631  143.6758  170.2114 N.ar    1  UNL1       -0.2229
     20 C         142.4547  142.6041  170.5553 C.ar    1  UNL1        0.1748
     21 N         141.8047  141.2748  170.3092 N.ar    1  UNL1       -0.3379
     22 H         142.2197  140.3930  170.4487 H       1  UNL1        0.1672
@<TRIPOS>BOND
     1     7     8    1
     2     8     9    1
     3     9    10    1
     4    10    11    1
     5    10    12    1
     6    10    13    1
     7    13    14    2
     8    14     1    1
     9     1     2   ar
    10     2     3   ar
    11     3     4   ar
    12     4     5   ar
    13     5    16    1
    14    16    17    1
    15    17    18   ar
    16    18    19   ar
    17    19    20   ar
    18    20    21   ar
    19     5     6   ar
    20    14    15    1
    21    15     8    1
    22     6     1   ar
    23    21    17   ar
    24    21    22    1
