@<TRIPOS>MOLECULE
*****
 33 37 0 0 0
SMALL
GASTEIGER

@<TRIPOS>ATOM
      1 C         140.3753  141.2964  165.5622 C.ar    1  UNL1        0.0921
      2 C         140.6327  141.9743  166.8753 C.ar    1  UNL1        0.1671
      3 O         139.9590  143.3142  166.8450 O.2     1  UNL1       -0.4518
      4 C         139.2852  143.4643  165.5132 C.ar    1  UNL1        0.1455
      5 C         138.4707  144.5755  164.9201 C.ar    1  UNL1        0.0406
      6 C         137.9135  144.4395  163.5341 C.ar    1  UNL1        0.0395
      7 C         138.1708  143.1925  162.7413 C.ar    1  UNL1        0.1311
      8 O         137.6136  143.0566  161.3552 O.3     1  UNL1       -0.5058
      9 C         138.9853  142.0813  163.3344 C.ar    1  UNL1        0.0308
     10 C         139.5425  142.2172  164.7204 C.ar    1  UNL1        0.0422
     11 H         137.1048  143.7507  160.9847 H       1  UNL1        0.2922
     12 C         141.4246  141.4113  168.0179 C.ar    1  UNL1        0.1161
     13 C         142.6194  142.1530  168.5399 C.ar    1  UNL1        0.0254
     14 C         143.4113  141.5899  169.6826 C.ar    1  UNL1        0.0399
     15 C         143.0086  140.2851  170.3033 C.ar    1  UNL1        0.1528
     16 O         143.8006  139.7221  171.4460 O.3     1  UNL1       -0.5039
     17 C         141.8139  139.5435  169.7814 C.ar    1  UNL1        0.1354
     18 N         141.0219  140.1065  168.6387 N.ar    1  UNL1       -0.2376
     19 H         144.5469  140.1854  171.7720 H       1  UNL1        0.2923
     20 C         142.6586  138.4328  164.0336 C.3     1  UNL1        0.1109
     21 N         142.1691  139.7928  164.4345 N.am    1  UNL1       -0.2991
     22 C         140.8647  139.9364  165.1612 C.2     1  UNL1        0.2490
     23 O         140.0499  138.7199  165.4869 O.2     1  UNL1       -0.2700
     24 H         142.7040  140.5912  164.2207 H       1  UNL1        0.1498
     25 C         139.2426  140.8342  162.5416 C.3     1  UNL1        0.1023
     26 N         140.5047  140.7008  161.7420 N.3     1  UNL1       -0.2687
     27 C         141.5570  141.7564  161.5728 C.3     1  UNL1        0.0726
     28 C         142.6388  141.1965  160.6975 C.3     1  UNL1        0.0235
     29 C         142.2552  139.7948  160.3257 C.3     1  UNL1        0.0707
     30 C         142.0736  138.3895  159.8335 C.3     1  UNL1        0.1458
     31 O         143.3803  138.4770  159.1019 O.3     1  UNL1       -0.3535
     32 C         143.5617  139.8823  159.5942 C.3     1  UNL1        0.1458
     33 C         140.9362  139.4885  160.9713 C.3     1  UNL1        0.0772
@<TRIPOS>BOND
     1    20    21    1
     2    21    22   am
     3    22    23    2
     4    22     1    1
     5     1     2   ar
     6     2    12    1
     7    12    13   ar
     8    13    14   ar
     9    14    15   ar
    10    15    16    1
    11    15    17   ar
    12    17    18   ar
    13     2     3   ar
    14     3     4   ar
    15     4     5   ar
    16     5     6   ar
    17     6     7   ar
    18     7     8    1
    19     7     9   ar
    20     9    25    1
    21    25    26    1
    22    26    27    1
    23    27    28    1
    24    28    29    1
    25    29    30    1
    26    30    31    1
    27    31    32    1
    28    29    33    1
    29     9    10   ar
    30    10     1   ar
    31    18    12   ar
    32    10     4   ar
    33    33    26    1
    34    32    29    1
    35    21    24    1
    36    16    19    1
    37     8    11    1
@<TRIPOS>MOLECULE
*****
 33 37 0 0 0
SMALL
GASTEIGER

@<TRIPOS>ATOM
      1 C         139.5692  141.4810  165.9150 C.ar    1  UNL1        0.0921
      2 C         140.1479  142.3581  166.9853 C.ar    1  UNL1        0.1671
      3 O         140.0475  143.7815  166.5227 O.2     1  UNL1       -0.4518
      4 C         139.4067  143.7840  165.1665 C.ar    1  UNL1        0.1455
      5 C         139.0542  144.8973  164.2250 C.ar    1  UNL1        0.0406
      6 C         138.4061  144.5887  162.9080 C.ar    1  UNL1        0.0395
      7 C         138.1105  143.1669  162.5323 C.ar    1  UNL1        0.1311
      8 O         137.4624  142.8584  161.2152 O.3     1  UNL1       -0.5058
      9 C         138.4630  142.0536  163.4738 C.ar    1  UNL1        0.0308
     10 C         139.1111  142.3622  164.7908 C.ar    1  UNL1        0.0422
     11 H         137.2422  143.5538  160.6271 H       1  UNL1        0.2922
     12 C         140.7257  141.8935  168.2893 C.ar    1  UNL1        0.1161
     13 C         142.1753  142.1296  168.5939 C.ar    1  UNL1        0.0254
     14 C         142.7530  141.6650  169.8979 C.ar    1  UNL1        0.0399
     15 C         141.8811  140.9643  170.8973 C.ar    1  UNL1        0.1528
     16 O         142.4588  140.4997  172.2013 O.3     1  UNL1       -0.5039
     17 C         140.4315  140.7283  170.5927 C.ar    1  UNL1        0.1354
     18 N         139.8538  141.1929  169.2887 N.ar    1  UNL1       -0.2376
     19 H         143.3644  140.6472  172.3915 H       1  UNL1        0.2923
     20 C         138.0516  137.8370  166.3258 C.3     1  UNL1        0.1109
     21 N         138.1542  139.3328  166.2802 N.am    1  UNL1       -0.2991
     22 C         139.4666  139.9852  165.9606 C.2     1  UNL1        0.2490
     23 O         140.6763  139.1417  165.6869 O.2     1  UNL1       -0.2700
     24 H         137.3601  139.8864  166.4599 H       1  UNL1        0.1498
     25 C         138.1674  140.6318  163.0982 C.3     1  UNL1        0.1023
     26 N         139.2746  139.7335  162.6323 N.3     1  UNL1       -0.2687
     27 C         139.2293  138.2352  162.5748 C.3     1  UNL1        0.0726
     28 C         140.5482  137.7513  162.0492 C.3     1  UNL1        0.0235
     29 C         141.4088  138.9505  161.7818 C.3     1  UNL1        0.0707
     30 C         142.4318  139.9944  161.4449 C.3     1  UNL1        0.1458
     31 O         143.3909  138.9195  161.0266 O.3     1  UNL1       -0.3535
     32 C         142.3677  137.8757  161.3636 C.3     1  UNL1        0.1458
     33 C         140.6216  140.1756  162.1422 C.3     1  UNL1        0.0772
@<TRIPOS>BOND
     1    20    21    1
     2    21    22   am
     3    22    23    2
     4    22     1    1
     5     1     2   ar
     6     2    12    1
     7    12    13   ar
     8    13    14   ar
     9    14    15   ar
    10    15    16    1
    11    15    17   ar
    12    17    18   ar
    13     2     3   ar
    14     3     4   ar
    15     4     5   ar
    16     5     6   ar
    17     6     7   ar
    18     7     8    1
    19     7     9   ar
    20     9    25    1
    21    25    26    1
    22    26    27    1
    23    27    28    1
    24    28    29    1
    25    29    30    1
    26    30    31    1
    27    31    32    1
    28    29    33    1
    29     9    10   ar
    30    10     1   ar
    31    18    12   ar
    32    10     4   ar
    33    33    26    1
    34    32    29    1
    35    21    24    1
    36    16    19    1
    37     8    11    1
@<TRIPOS>MOLECULE
*****
 33 37 0 0 0
SMALL
GASTEIGER

@<TRIPOS>ATOM
      1 C         141.6058  142.7723  165.3679 C.ar    1  UNL1        0.0921
      2 C         140.5458  142.9573  166.4129 C.ar    1  UNL1        0.1671
      3 O         139.5136  143.8975  165.8646 O.2     1  UNL1       -0.4518
      4 C         139.9357  144.2936  164.4808 C.ar    1  UNL1        0.1455
      5 C         139.3097  145.1976  163.4606 C.ar    1  UNL1        0.0406
      6 C         139.9768  145.4062  162.1334 C.ar    1  UNL1        0.0395
      7 C         141.2699  144.7107  161.8264 C.ar    1  UNL1        0.1311
      8 O         141.9370  144.9193  160.4992 O.3     1  UNL1       -0.5058
      9 C         141.8959  143.8067  162.8466 C.ar    1  UNL1        0.0308
     10 C         141.2288  143.5981  164.1738 C.ar    1  UNL1        0.0422
     11 H         141.5460  145.4840  159.8619 H       1  UNL1        0.2922
     12 C         140.5221  142.3150  167.7682 C.ar    1  UNL1        0.1161
     13 C         140.4697  143.1673  169.0013 C.ar    1  UNL1        0.0254
     14 C         140.4459  142.5249  170.3566 C.ar    1  UNL1        0.0399
     15 C         140.4746  141.0302  170.4787 C.ar    1  UNL1        0.1528
     16 O         140.4509  140.3879  171.8340 O.3     1  UNL1       -0.5039
     17 C         140.5271  140.1779  169.2456 C.ar    1  UNL1        0.1354
     18 N         140.5508  140.8203  167.8903 N.ar    1  UNL1       -0.2376
     19 H         140.4182  140.9203  172.6043 H       1  UNL1        0.2923
     20 C         143.9392  139.5638  165.4742 C.3     1  UNL1        0.1109
     21 N         142.7168  140.4237  165.3474 N.am    1  UNL1       -0.2991
     22 C         142.8283  141.9124  165.4947 C.2     1  UNL1        0.2490
     23 O         144.1623  142.5409  165.7688 O.2     1  UNL1       -0.2700
     24 H         141.8412  140.0111  165.1675 H       1  UNL1        0.1498
     25 C         143.1890  143.1112  162.5396 C.3     1  UNL1        0.1023
     26 N         143.1941  141.6473  162.2126 N.3     1  UNL1       -0.2687
     27 C         144.4106  140.7903  162.0236 C.3     1  UNL1        0.0726
     28 C         143.9519  139.3967  161.7114 C.3     1  UNL1        0.0235
     29 C         142.4519  139.3923  161.7074 C.3     1  UNL1        0.0707
     30 C         140.9712  139.1592  161.6523 C.3     1  UNL1        0.1458
     31 O         141.2109  137.7139  161.3299 O.3     1  UNL1       -0.3535
     32 C         142.6916  137.9472  161.3851 C.3     1  UNL1        0.1458
     33 C         141.9835  140.7834  162.0172 C.3     1  UNL1        0.0772
@<TRIPOS>BOND
     1    20    21    1
     2    21    22   am
     3    22    23    2
     4    22     1    1
     5     1     2   ar
     6     2    12    1
     7    12    13   ar
     8    13    14   ar
     9    14    15   ar
    10    15    16    1
    11    15    17   ar
    12    17    18   ar
    13     2     3   ar
    14     3     4   ar
    15     4     5   ar
    16     5     6   ar
    17     6     7   ar
    18     7     8    1
    19     7     9   ar
    20     9    25    1
    21    25    26    1
    22    26    27    1
    23    27    28    1
    24    28    29    1
    25    29    30    1
    26    30    31    1
    27    31    32    1
    28    29    33    1
    29     9    10   ar
    30    10     1   ar
    31    18    12   ar
    32    10     4   ar
    33    33    26    1
    34    32    29    1
    35    21    24    1
    36    16    19    1
    37     8    11    1
@<TRIPOS>MOLECULE
*****
 33 37 0 0 0
SMALL
GASTEIGER

@<TRIPOS>ATOM
      1 C         140.2387  141.5726  165.6099 C.ar    1  UNL1        0.0921
      2 C         140.7447  140.9841  166.8935 C.ar    1  UNL1        0.1671
      3 O         140.4828  139.5075  166.8614 O.2     1  UNL1       -0.4518
      4 C         139.8149  139.1835  165.5579 C.ar    1  UNL1        0.1455
      5 C         139.3247  137.8911  164.9754 C.ar    1  UNL1        0.0406
      6 C         138.6835  137.8750  163.6195 C.ar    1  UNL1        0.0395
      7 C         138.5327  139.1513  162.8460 C.ar    1  UNL1        0.1311
      8 O         137.8915  139.1352  161.4900 O.3     1  UNL1       -0.5058
      9 C         139.0229  140.4437  163.4285 C.ar    1  UNL1        0.0308
     10 C         139.6641  140.4598  164.7845 C.ar    1  UNL1        0.0422
     11 H         137.5852  138.3279  161.1262 H       1  UNL1        0.2922
     12 C         141.3979  141.7396  168.0127 C.ar    1  UNL1        0.1161
     13 C         140.5982  142.7114  168.8287 C.ar    1  UNL1        0.0254
     14 C         141.2514  143.4669  169.9479 C.ar    1  UNL1        0.0399
     15 C         142.7044  143.2505  170.2511 C.ar    1  UNL1        0.1528
     16 O         143.3576  144.0059  171.3703 O.3     1  UNL1       -0.5039
     17 C         143.5041  142.2786  169.4351 C.ar    1  UNL1        0.1354
     18 N         142.8509  141.5232  168.3159 N.ar    1  UNL1       -0.2376
     19 H         142.8580  144.6130  171.8800 H       1  UNL1        0.2923
     20 C         141.4930  144.9734  163.9937 C.3     1  UNL1        0.1109
     21 N         141.4346  143.5261  164.3834 N.am    1  UNL1       -0.2991
     22 C         140.2971  143.0199  165.2201 C.2     1  UNL1        0.2490
     23 O         139.2180  143.9611  165.6669 O.2     1  UNL1       -0.2700
     24 H         142.1429  142.9084  164.0901 H       1  UNL1        0.1498
     25 C         138.8721  141.7200  162.6551 C.3     1  UNL1        0.1023
     26 N         139.9775  142.1868  161.7551 N.3     1  UNL1       -0.2687
     27 C         141.2172  141.4164  161.4087 C.3     1  UNL1        0.0726
     28 C         142.0433  142.2593  160.4830 C.3     1  UNL1        0.0235
     29 C         141.3143  143.5507  160.2572 C.3     1  UNL1        0.0707
     30 C         140.7672  144.8991  159.8934 C.3     1  UNL1        0.1458
     31 O         141.9732  145.1581  159.0398 O.3     1  UNL1       -0.3535
     32 C         142.5202  143.8096  159.4036 C.3     1  UNL1        0.1458
     33 C         140.0376  143.5058  161.0434 C.3     1  UNL1        0.0772
@<TRIPOS>BOND
     1    20    21    1
     2    21    22   am
     3    22    23    2
     4    22     1    1
     5     1     2   ar
     6     2    12    1
     7    12    13   ar
     8    13    14   ar
     9    14    15   ar
    10    15    16    1
    11    15    17   ar
    12    17    18   ar
    13     2     3   ar
    14     3     4   ar
    15     4     5   ar
    16     5     6   ar
    17     6     7   ar
    18     7     8    1
    19     7     9   ar
    20     9    25    1
    21    25    26    1
    22    26    27    1
    23    27    28    1
    24    28    29    1
    25    29    30    1
    26    30    31    1
    27    31    32    1
    28    29    33    1
    29     9    10   ar
    30    10     1   ar
    31    18    12   ar
    32    10     4   ar
    33    33    26    1
    34    32    29    1
    35    21    24    1
    36    16    19    1
    37     8    11    1
@<TRIPOS>MOLECULE
*****
 33 37 0 0 0
SMALL
GASTEIGER

@<TRIPOS>ATOM
      1 C         141.7240  142.3614  165.3444 C.ar    1  UNL1        0.0921
      2 C         141.2108  142.3335  166.7536 C.ar    1  UNL1        0.1671
      3 O         139.9237  143.1028  166.7934 O.2     1  UNL1       -0.4518
      4 C         139.6415  143.6061  165.4088 C.ar    1  UNL1        0.1455
      5 C         138.5151  144.4225  164.8478 C.ar    1  UNL1        0.0406
      6 C         138.5013  144.7805  163.3913 C.ar    1  UNL1        0.0395
      7 C         139.6139  144.3223  162.4957 C.ar    1  UNL1        0.1311
      8 O         139.6001  144.6804  161.0391 O.3     1  UNL1       -0.5058
      9 C         140.7404  143.5059  163.0567 C.ar    1  UNL1        0.0308
     10 C         140.7541  143.1479  164.5132 C.ar    1  UNL1        0.0422
     11 H         138.8965  145.1903  160.6887 H       1  UNL1        0.2922
     12 C         141.8691  141.6555  167.9184 C.ar    1  UNL1        0.1161
     13 C         141.5540  140.2220  168.2278 C.ar    1  UNL1        0.0254
     14 C         142.2123  139.5439  169.3927 C.ar    1  UNL1        0.0399
     15 C         143.1857  140.2993  170.2481 C.ar    1  UNL1        0.1528
     16 O         143.8440  139.6213  171.4130 O.3     1  UNL1       -0.5039
     17 C         143.5008  141.7328  169.9387 C.ar    1  UNL1        0.1354
     18 N         142.8425  142.4109  168.7739 N.ar    1  UNL1       -0.2376
     19 H         143.6471  138.7258  171.6062 H       1  UNL1        0.2923
     20 C         144.2053  139.6884  163.7795 C.3     1  UNL1        0.1109
     21 N         142.9437  140.3338  164.2713 N.am    1  UNL1       -0.2991
     22 C         142.9856  141.7160  164.8526 C.2     1  UNL1        0.2490
     23 O         144.2891  142.4527  164.9420 O.2     1  UNL1       -0.2700
     24 H         142.0882  139.8502  164.2125 H       1  UNL1        0.1498
     25 C         141.8530  143.0477  162.1612 C.3     1  UNL1        0.1023
     26 N         141.7796  141.7021  161.5023 N.3     1  UNL1       -0.2687
     27 C         140.6367  140.7352  161.5969 C.3     1  UNL1        0.0726
     28 C         140.9870  139.5227  160.7863 C.3     1  UNL1        0.0235
     29 C         142.3464  139.7402  160.1907 C.3     1  UNL1        0.0707
     30 C         143.6776  139.7445  159.4995 C.3     1  UNL1        0.1458
     31 O         143.3925  138.3814  158.9419 O.3     1  UNL1       -0.3535
     32 C         142.0613  138.3772  159.6332 C.3     1  UNL1        0.1458
     33 C         142.8363  141.0871  160.6333 C.3     1  UNL1        0.0772
@<TRIPOS>BOND
     1    20    21    1
     2    21    22   am
     3    22    23    2
     4    22     1    1
     5     1     2   ar
     6     2    12    1
     7    12    13   ar
     8    13    14   ar
     9    14    15   ar
    10    15    16    1
    11    15    17   ar
    12    17    18   ar
    13     2     3   ar
    14     3     4   ar
    15     4     5   ar
    16     5     6   ar
    17     6     7   ar
    18     7     8    1
    19     7     9   ar
    20     9    25    1
    21    25    26    1
    22    26    27    1
    23    27    28    1
    24    28    29    1
    25    29    30    1
    26    30    31    1
    27    31    32    1
    28    29    33    1
    29     9    10   ar
    30    10     1   ar
    31    18    12   ar
    32    10     4   ar
    33    33    26    1
    34    32    29    1
    35    21    24    1
    36    16    19    1
    37     8    11    1
@<TRIPOS>MOLECULE
*****
 33 37 0 0 0
SMALL
GASTEIGER

@<TRIPOS>ATOM
      1 C         141.9599  140.4652  165.0925 C.ar    1  UNL1        0.0921
      2 C         141.4017  139.5102  166.1057 C.ar    1  UNL1        0.1671
      3 O         141.0329  138.2425  165.3938 O.2     1  UNL1       -0.4518
      4 C         141.3632  138.4140  163.9406 C.ar    1  UNL1        0.1455
      5 C         141.2162  137.4967  162.7630 C.ar    1  UNL1        0.0406
      6 C         141.6422  137.9531  161.3991 C.ar    1  UNL1        0.0395
      7 C         142.2151  139.3269  161.2129 C.ar    1  UNL1        0.1311
      8 O         142.6411  139.7833  159.8490 O.3     1  UNL1       -0.5058
      9 C         142.3621  140.2441  162.3906 C.ar    1  UNL1        0.0308
     10 C         141.9361  139.7877  163.7545 C.ar    1  UNL1        0.0422
     11 H         142.5493  139.2103  159.1133 H       1  UNL1        0.2922
     12 C         141.2406  139.7763  167.5731 C.ar    1  UNL1        0.1161
     13 C         142.3994  139.5738  168.5037 C.ar    1  UNL1        0.0254
     14 C         142.2383  139.8399  169.9711 C.ar    1  UNL1        0.0399
     15 C         140.9184  140.3084  170.5079 C.ar    1  UNL1        0.1528
     16 O         140.7572  140.5745  171.9753 O.3     1  UNL1       -0.5039
     17 C         139.7595  140.5109  169.5773 C.ar    1  UNL1        0.1354
     18 N         139.9206  140.2449  168.1099 N.ar    1  UNL1       -0.2376
     19 H         141.4811  140.4480  172.5566 H       1  UNL1        0.2923
     20 C         144.4228  143.5280  165.6440 C.3     1  UNL1        0.1109
     21 N         143.9277  142.1393  165.3676 N.am    1  UNL1       -0.2991
     22 C         142.4550  141.8539  165.3689 C.2     1  UNL1        0.2490
     23 O         141.4776  142.9573  165.6466 O.2     1  UNL1       -0.2700
     24 H         144.5692  141.4151  165.1854 H       1  UNL1        0.1498
     25 C         142.9350  141.6178  162.2044 C.3     1  UNL1        0.1023
     26 N         142.0386  142.8190  162.2660 N.3     1  UNL1       -0.2687
     27 C         142.4842  144.2466  162.3819 C.3     1  UNL1        0.0726
     28 C         141.2602  145.1134  162.4100 C.3     1  UNL1        0.0235
     29 C         140.0582  144.2215  162.3114 C.3     1  UNL1        0.0707
     30 C         138.7309  143.5284  162.2237 C.3     1  UNL1        0.1458
     31 O         138.0335  144.8543  162.2999 O.3     1  UNL1       -0.3535
     32 C         139.3610  145.5473  162.3876 C.3     1  UNL1        0.1458
     33 C         140.5393  142.8034  162.2224 C.3     1  UNL1        0.0772
@<TRIPOS>BOND
     1    20    21    1
     2    21    22   am
     3    22    23    2
     4    22     1    1
     5     1     2   ar
     6     2    12    1
     7    12    13   ar
     8    13    14   ar
     9    14    15   ar
    10    15    16    1
    11    15    17   ar
    12    17    18   ar
    13     2     3   ar
    14     3     4   ar
    15     4     5   ar
    16     5     6   ar
    17     6     7   ar
    18     7     8    1
    19     7     9   ar
    20     9    25    1
    21    25    26    1
    22    26    27    1
    23    27    28    1
    24    28    29    1
    25    29    30    1
    26    30    31    1
    27    31    32    1
    28    29    33    1
    29     9    10   ar
    30    10     1   ar
    31    18    12   ar
    32    10     4   ar
    33    33    26    1
    34    32    29    1
    35    21    24    1
    36    16    19    1
    37     8    11    1
@<TRIPOS>MOLECULE
*****
 33 37 0 0 0
SMALL
GASTEIGER

@<TRIPOS>ATOM
      1 C         142.8207  140.7959  165.4233 C.ar    1  UNL1        0.0921
      2 C         142.3507  141.5727  166.6173 C.ar    1  UNL1        0.1671
      3 O         142.6525  143.0220  166.3754 O.2     1  UNL1       -0.4518
      4 C         143.3090  143.1409  165.0320 C.ar    1  UNL1        0.1455
      5 C         143.8256  144.3241  164.2685 C.ar    1  UNL1        0.0406
      6 C         144.4462  144.1316  162.9165 C.ar    1  UNL1        0.0395
      7 C         144.5501  142.7557  162.3281 C.ar    1  UNL1        0.1311
      8 O         145.1707  142.5632  160.9761 O.3     1  UNL1       -0.5058
      9 C         144.0335  141.5725  163.0916 C.ar    1  UNL1        0.0308
     10 C         143.4130  141.7650  164.4435 C.ar    1  UNL1        0.0422
     11 H         145.4934  143.3024  160.4991 H       1  UNL1        0.2922
     12 C         141.6942  141.0007  167.8387 C.ar    1  UNL1        0.1161
     13 C         140.2035  140.8403  167.8833 C.ar    1  UNL1        0.0254
     14 C         139.5469  140.2683  169.1047 C.ar    1  UNL1        0.0399
     15 C         140.3811  139.8567  170.2814 C.ar    1  UNL1        0.1528
     16 O         139.7245  139.2847  171.5028 O.3     1  UNL1       -0.5039
     17 C         141.8718  140.0172  170.2368 C.ar    1  UNL1        0.1354
     18 N         142.5283  140.5892  169.0154 N.ar    1  UNL1       -0.2376
     19 H         138.7933  139.1845  171.5307 H       1  UNL1        0.2923
     20 C         141.4193  137.2364  164.3667 C.3     1  UNL1        0.1109
     21 N         141.5233  138.7217  164.5489 N.am    1  UNL1       -0.2991
     22 C         142.7167  139.3106  165.2411 C.2     1  UNL1        0.2490
     23 O         143.8060  138.4143  165.7509 O.2     1  UNL1       -0.2700
     24 H         140.8083  139.3099  164.2143 H       1  UNL1        0.1498
     25 C         144.1375  140.1966  162.5031 C.3     1  UNL1        0.1023
     26 N         142.9907  139.6262  161.7225 N.3     1  UNL1       -0.2687
     27 C         142.9298  138.2534  161.1209 C.3     1  UNL1        0.0726
     28 C         141.6050  138.1071  160.4329 C.3     1  UNL1        0.0235
     29 C         140.8470  139.3895  160.6092 C.3     1  UNL1        0.0707
     30 C         139.9191  140.5668  160.6612 C.3     1  UNL1        0.1458
     31 O         138.9049  139.8028  159.8625 O.3     1  UNL1       -0.3535
     32 C         139.8330  138.6254  159.8106 C.3     1  UNL1        0.1458
     33 C         141.7035  140.3283  161.4062 C.3     1  UNL1        0.0772
@<TRIPOS>BOND
     1    20    21    1
     2    21    22   am
     3    22    23    2
     4    22     1    1
     5     1     2   ar
     6     2    12    1
     7    12    13   ar
     8    13    14   ar
     9    14    15   ar
    10    15    16    1
    11    15    17   ar
    12    17    18   ar
    13     2     3   ar
    14     3     4   ar
    15     4     5   ar
    16     5     6   ar
    17     6     7   ar
    18     7     8    1
    19     7     9   ar
    20     9    25    1
    21    25    26    1
    22    26    27    1
    23    27    28    1
    24    28    29    1
    25    29    30    1
    26    30    31    1
    27    31    32    1
    28    29    33    1
    29     9    10   ar
    30    10     1   ar
    31    18    12   ar
    32    10     4   ar
    33    33    26    1
    34    32    29    1
    35    21    24    1
    36    16    19    1
    37     8    11    1
@<TRIPOS>MOLECULE
*****
 33 37 0 0 0
SMALL
GASTEIGER

@<TRIPOS>ATOM
      1 C         142.5507  140.5647  165.4231 C.ar    1  UNL1        0.0921
      2 C         142.6506  141.4715  166.6138 C.ar    1  UNL1        0.1671
      3 O         143.3576  142.7231  166.1851 O.2     1  UNL1       -0.4518
      4 C         143.6946  142.5898  164.7295 C.ar    1  UNL1        0.1455
      5 C         144.3911  143.5107  163.7721 C.ar    1  UNL1        0.0406
      6 C         144.5889  143.0977  162.3438 C.ar    1  UNL1        0.0395
      7 C         144.0903  141.7637  161.8728 C.ar    1  UNL1        0.1311
      8 O         144.2882  141.3507  160.4444 O.3     1  UNL1       -0.5058
      9 C         143.3938  140.8427  162.8302 C.ar    1  UNL1        0.0308
     10 C         143.1959  141.2558  164.2586 C.ar    1  UNL1        0.0422
     11 H         144.7233  141.9260  159.8463 H       1  UNL1        0.2922
     12 C         142.1343  141.1782  167.9912 C.ar    1  UNL1        0.1161
     13 C         140.7045  141.4740  168.3349 C.ar    1  UNL1        0.0254
     14 C         140.1881  141.1808  169.7124 C.ar    1  UNL1        0.0399
     15 C         141.1015  140.5917  170.7461 C.ar    1  UNL1        0.1528
     16 O         140.5851  140.2984  172.1235 O.3     1  UNL1       -0.5039
     17 C         142.5313  140.2959  170.4024 C.ar    1  UNL1        0.1354
     18 N         143.0477  140.5891  169.0249 N.ar    1  UNL1       -0.2376
     19 H         139.6920  140.4832  172.3382 H       1  UNL1        0.2923
     20 C         139.8119  137.7085  165.1197 C.3     1  UNL1        0.1109
     21 N         140.4457  139.0679  165.1420 N.am    1  UNL1       -0.2991
     22 C         141.9169  139.2053  165.4008 C.2     1  UNL1        0.2490
     23 O         142.7541  137.9834  165.6374 O.2     1  UNL1       -0.2700
     24 H         139.8962  139.8698  164.9867 H       1  UNL1        0.1498
     25 C         142.8951  139.5087  162.3593 C.3     1  UNL1        0.1023
     26 N         141.4472  139.3297  162.0107 N.3     1  UNL1       -0.2687
     27 C         140.7871  138.0403  161.6209 C.3     1  UNL1        0.0726
     28 C         139.3371  138.3223  161.3600 C.3     1  UNL1        0.0235
     29 C         139.1010  139.7859  161.5885 C.3     1  UNL1        0.0707
     30 C         138.6415  141.2034  161.7597 C.3     1  UNL1        0.1458
     31 O         137.2483  140.7976  161.3797 O.3     1  UNL1       -0.3535
     32 C         137.7080  139.3801  161.2085 C.3     1  UNL1        0.1458
     33 C         140.4052  140.4085  161.9907 C.3     1  UNL1        0.0772
@<TRIPOS>BOND
     1    20    21    1
     2    21    22   am
     3    22    23    2
     4    22     1    1
     5     1     2   ar
     6     2    12    1
     7    12    13   ar
     8    13    14   ar
     9    14    15   ar
    10    15    16    1
    11    15    17   ar
    12    17    18   ar
    13     2     3   ar
    14     3     4   ar
    15     4     5   ar
    16     5     6   ar
    17     6     7   ar
    18     7     8    1
    19     7     9   ar
    20     9    25    1
    21    25    26    1
    22    26    27    1
    23    27    28    1
    24    28    29    1
    25    29    30    1
    26    30    31    1
    27    31    32    1
    28    29    33    1
    29     9    10   ar
    30    10     1   ar
    31    18    12   ar
    32    10     4   ar
    33    33    26    1
    34    32    29    1
    35    21    24    1
    36    16    19    1
    37     8    11    1
@<TRIPOS>MOLECULE
*****
 33 37 0 0 0
SMALL
GASTEIGER

@<TRIPOS>ATOM
      1 C         140.0755  141.1821  165.9130 C.ar    1  UNL1        0.0921
      2 C         140.6803  141.9231  167.0685 C.ar    1  UNL1        0.1671
      3 O         140.3676  143.3803  166.8994 O.2     1  UNL1       -0.4518
      4 C         139.5694  143.5400  165.6394 C.ar    1  UNL1        0.1455
      5 C         138.9836  144.7469  164.9685 C.ar    1  UNL1        0.0406
      6 C         138.2174  144.5952  163.6880 C.ar    1  UNL1        0.0395
      7 C         138.0369  143.2366  163.0784 C.ar    1  UNL1        0.1311
      8 O         137.2706  143.0850  161.7978 O.3     1  UNL1       -0.5058
      9 C         138.6226  142.0297  163.7493 C.ar    1  UNL1        0.0308
     10 C         139.3889  142.1814  165.0298 C.ar    1  UNL1        0.0422
     11 H         136.9047  143.8390  161.3787 H       1  UNL1        0.2922
     12 C         141.4609  141.3138  168.1952 C.ar    1  UNL1        0.1161
     13 C         141.0163  140.0148  168.7993 C.ar    1  UNL1        0.0254
     14 C         141.7969  139.4056  169.9260 C.ar    1  UNL1        0.0399
     15 C         143.0221  140.0953  170.4486 C.ar    1  UNL1        0.1528
     16 O         143.8027  139.4860  171.5753 O.3     1  UNL1       -0.5039
     17 C         143.4667  141.3942  169.8445 C.ar    1  UNL1        0.1354
     18 N         142.6861  142.0035  168.7178 N.ar    1  UNL1       -0.2376
     19 H         143.5250  138.6745  171.9526 H       1  UNL1        0.2923
     20 C         141.3947  137.6280  164.7390 C.3     1  UNL1        0.1109
     21 N         141.3252  139.1084  164.9706 N.am    1  UNL1       -0.2991
     22 C         140.1450  139.7017  165.6814 C.2     1  UNL1        0.2490
     23 O         139.0344  138.8146  166.1605 O.2     1  UNL1       -0.2700
     24 H         142.0542  139.6906  164.6562 H       1  UNL1        0.1498
     25 C         138.4421  140.6711  163.1397 C.3     1  UNL1        0.1023
     26 N         138.9589  140.3938  161.7592 N.3     1  UNL1       -0.2687
     27 C         140.3761  140.0593  161.3989 C.3     1  UNL1        0.0726
     28 C         140.4424  139.8611  159.9135 C.3     1  UNL1        0.0235
     29 C         139.0662  140.0731  159.3557 C.3     1  UNL1        0.0707
     30 C         137.7878  140.2391  158.5889 C.3     1  UNL1        0.1458
     31 O         138.5136  139.9321  157.3125 O.3     1  UNL1       -0.3535
     32 C         139.7920  139.7661  158.0795 C.3     1  UNL1        0.1458
     33 C         138.1493  140.4023  160.4964 C.3     1  UNL1        0.0772
@<TRIPOS>BOND
     1    20    21    1
     2    21    22   am
     3    22    23    2
     4    22     1    1
     5     1     2   ar
     6     2    12    1
     7    12    13   ar
     8    13    14   ar
     9    14    15   ar
    10    15    16    1
    11    15    17   ar
    12    17    18   ar
    13     2     3   ar
    14     3     4   ar
    15     4     5   ar
    16     5     6   ar
    17     6     7   ar
    18     7     8    1
    19     7     9   ar
    20     9    25    1
    21    25    26    1
    22    26    27    1
    23    27    28    1
    24    28    29    1
    25    29    30    1
    26    30    31    1
    27    31    32    1
    28    29    33    1
    29     9    10   ar
    30    10     1   ar
    31    18    12   ar
    32    10     4   ar
    33    33    26    1
    34    32    29    1
    35    21    24    1
    36    16    19    1
    37     8    11    1
