@<TRIPOS>MOLECULE
*****
 33 35 0 0 0
SMALL
GASTEIGER

@<TRIPOS>ATOM
      1 C         141.5630  142.3155  164.2736 C.3     1  UNL1        0.0693
      2 C         140.9769  143.4738  163.5222 C.2     1  UNL1       -0.0014
      3 C         141.6482  144.8145  163.5682 C.2     1  UNL1       -0.0188
      4 C         141.0622  145.9729  162.8167 C.3     1  UNL1        0.1129
      5 C         139.8048  145.7906  162.0193 C.2     1  UNL1        0.2500
      6 O         139.2188  146.9490  161.2679 O.2     1  UNL1       -0.2726
      7 N         139.1335  144.4501  161.9733 N.am    1  UNL1       -0.1779
      8 C         139.7196  143.2916  162.7248 C.2     1  UNL1        0.0846
      9 C         141.6062  138.7158  162.6031 C.ar    1  UNL1        0.1719
     10 C         141.1282  139.9276  163.3467 C.ar    1  UNL1        0.0364
     11 C         142.0410  141.1037  163.5299 C.ar    1  UNL1       -0.0110
     12 C         143.4319  141.0680  162.9694 C.ar    1  UNL1       -0.0003
     13 C         143.9099  139.8562  162.2257 C.ar    1  UNL1        0.0399
     14 C         142.9971  138.6802  162.0426 C.ar    1  UNL1        0.1779
     15 O         140.6934  137.5397  162.4199 O.3     1  UNL1       -0.4761
     16 C         138.1836  137.9605  161.8967 C.3     1  UNL1        0.0472
     17 C         139.2669  137.6193  162.8766 C.3     1  UNL1        0.1663
     18 C         138.9235  137.3576  164.3132 C.3     1  UNL1        0.0472
     19 O         143.4752  137.4684  161.2988 O.3     1  UNL1       -0.4205
     20 C         143.0305  137.2316  159.8860 C.3     1  UNL1        0.5087
     21 F         143.2944  135.9096  159.2282 F       1  UNL1       -0.1550
     22 F         142.3218  138.3168  159.1309 F       1  UNL1       -0.1550
     23 C         141.6710  142.3688  165.7688 C.ar    1  UNL1        0.0048
     24 C         142.9970  142.1453  166.4334 C.ar    1  UNL1       -0.0008
     25 C         143.1050  142.1987  167.9286 C.ar    1  UNL1        0.0168
     26 C         141.8870  142.4755  168.7591 C.ar    1  UNL1        0.0830
     27 N         140.5610  142.6990  168.0945 N.ar    1  UNL1       -0.2462
     28 C         140.4530  142.6456  166.5993 C.ar    1  UNL1        0.0949
     29 C         141.9950  142.5289  170.2543 C.3     1  UNL1        0.1232
     30 C         140.4999  142.5896  170.3601 C.3     1  UNL1        0.0355
     31 C         143.4900  142.4682  170.1484 C.3     1  UNL1        0.0355
     32 O         142.1030  142.5822  171.7494 O.3     1  UNL1       -0.3812
     33 H         141.2147  142.6307  172.1362 H       1  UNL1        0.2107
@<TRIPOS>BOND
     1    16    17    1
     2    17    18    1
     3    17    15    1
     4    15     9    1
     5     9    10   ar
     6    10    11   ar
     7    11     1    1
     8     1     2    1
     9     2     3    2
    10     3     4    1
    11     4     5    1
    12     5     6    2
    13     5     7    1
    14     7     8    2
    15     1    23    1
    16    23    24   ar
    17    24    25   ar
    18    25    26   ar
    19    26    29    1
    20    29    30    1
    21    29    31    1
    22    29    32    1
    23    26    27   ar
    24    27    28   ar
    25    11    12   ar
    26    12    13   ar
    27    13    14   ar
    28    14    19    1
    29    19    20    1
    30    20    21    1
    31    20    22    1
    32    14     9   ar
    33     8     2    1
    34    28    23   ar
    35    32    33    1
@<TRIPOS>MOLECULE
*****
 33 35 0 0 0
SMALL
GASTEIGER

@<TRIPOS>ATOM
      1 C         141.6339  142.1962  164.3737 C.3     1  UNL1        0.0693
      2 C         141.0131  143.3368  163.6230 C.2     1  UNL1       -0.0014
      3 C         139.5402  143.5968  163.7373 C.2     1  UNL1       -0.0188
      4 C         138.9194  144.7374  162.9866 C.3     1  UNL1        0.1129
      5 C         139.7715  145.6181  162.1216 C.2     1  UNL1        0.2500
      6 O         139.1508  146.7588  161.3709 O.2     1  UNL1       -0.2726
      7 N         141.2444  145.3582  162.0073 N.am    1  UNL1       -0.1779
      8 C         141.8652  144.2176  162.7580 C.2     1  UNL1        0.0846
      9 C         141.6411  138.7338  162.4342 C.ar    1  UNL1        0.1719
     10 C         141.1509  139.9416  163.1763 C.ar    1  UNL1        0.0364
     11 C         142.1241  140.9883  163.6316 C.ar    1  UNL1       -0.0110
     12 C         143.5876  140.8271  163.3448 C.ar    1  UNL1       -0.0003
     13 C         144.0778  139.6192  162.6027 C.ar    1  UNL1        0.0399
     14 C         143.1045  138.5725  162.1475 C.ar    1  UNL1        0.1779
     15 O         140.6678  137.6871  161.9790 O.3     1  UNL1       -0.4761
     16 C         139.5277  138.5041  159.7920 C.3     1  UNL1        0.0472
     17 C         139.4316  138.0876  161.2299 C.3     1  UNL1        0.1663
     18 C         138.0991  138.0718  161.9186 C.3     1  UNL1        0.0472
     19 O         143.5948  137.3646  161.4054 O.3     1  UNL1       -0.4205
     20 C         143.2438  137.1795  159.9588 C.3     1  UNL1        0.5087
     21 F         142.8289  138.3594  159.1307 F       1  UNL1       -0.1550
     22 F         143.3075  135.8144  159.3404 F       1  UNL1       -0.1550
     23 C         141.7644  142.2634  165.8665 C.ar    1  UNL1        0.0048
     24 C         140.5419  142.1733  166.7311 C.ar    1  UNL1       -0.0008
     25 C         140.6724  142.2405  168.2239 C.ar    1  UNL1        0.0168
     26 C         142.0254  142.3978  168.8521 C.ar    1  UNL1        0.0830
     27 N         143.2479  142.4879  167.9875 N.ar    1  UNL1       -0.2462
     28 C         143.1173  142.4207  166.4947 C.ar    1  UNL1        0.0949
     29 C         142.1560  142.4650  170.3449 C.3     1  UNL1        0.1232
     30 C         143.6442  142.5946  170.2089 C.3     1  UNL1        0.0355
     31 C         140.6678  142.3355  170.4809 C.3     1  UNL1        0.0355
     32 O         142.2865  142.5322  171.8377 O.3     1  UNL1       -0.3812
     33 H         143.2220  142.6257  172.0766 H       1  UNL1        0.2107
@<TRIPOS>BOND
     1    16    17    1
     2    17    18    1
     3    17    15    1
     4    15     9    1
     5     9    10   ar
     6    10    11   ar
     7    11     1    1
     8     1     2    1
     9     2     3    2
    10     3     4    1
    11     4     5    1
    12     5     6    2
    13     5     7    1
    14     7     8    2
    15     1    23    1
    16    23    24   ar
    17    24    25   ar
    18    25    26   ar
    19    26    29    1
    20    29    30    1
    21    29    31    1
    22    29    32    1
    23    26    27   ar
    24    27    28   ar
    25    11    12   ar
    26    12    13   ar
    27    13    14   ar
    28    14    19    1
    29    19    20    1
    30    20    21    1
    31    20    22    1
    32    14     9   ar
    33     8     2    1
    34    28    23   ar
    35    32    33    1
@<TRIPOS>MOLECULE
*****
 33 35 0 0 0
SMALL
GASTEIGER

@<TRIPOS>ATOM
      1 C         141.1493  141.3457  163.5707 C.3     1  UNL1        0.0693
      2 C         140.7798  142.7282  163.1211 C.2     1  UNL1       -0.0014
      3 C         141.5835  143.9072  163.5836 C.2     1  UNL1       -0.0188
      4 C         141.2140  145.2897  163.1340 C.3     1  UNL1        0.1129
      5 C         140.0407  145.4932  162.2219 C.2     1  UNL1        0.2500
      6 O         139.6711  146.8756  161.7723 O.2     1  UNL1       -0.2726
      7 N         139.2369  144.3142  161.7594 N.am    1  UNL1       -0.1779
      8 C         139.6065  142.9316  162.2090 C.2     1  UNL1        0.0846
      9 C         143.0976  139.7234  160.5175 C.ar    1  UNL1        0.1719
     10 C         142.6182  140.7340  161.5169 C.ar    1  UNL1        0.0364
     11 C         141.6287  140.3350  162.5713 C.ar    1  UNL1       -0.0110
     12 C         141.1187  138.9255  162.6263 C.ar    1  UNL1       -0.0003
     13 C         141.5981  137.9150  161.6269 C.ar    1  UNL1        0.0399
     14 C         142.5876  138.3139  160.5725 C.ar    1  UNL1        0.1779
     15 O         144.0871  140.1223  159.4631 O.3     1  UNL1       -0.4761
     16 C         144.8184  142.3770  158.3993 C.3     1  UNL1        0.0472
     17 C         143.7984  141.2900  158.5670 C.3     1  UNL1        0.1663
     18 C         142.4896  141.3708  157.8385 C.3     1  UNL1        0.0472
     19 O         143.0670  137.3032  159.5731 O.3     1  UNL1       -0.4205
     20 C         142.5881  137.3671  158.1530 C.3     1  UNL1        0.5087
     21 F         143.2713  136.5539  157.0937 F       1  UNL1       -0.1550
     22 F         141.4259  138.2442  157.7922 F       1  UNL1       -0.1550
     23 C         141.0395  140.9738  165.0197 C.ar    1  UNL1        0.0048
     24 C         142.2699  140.6060  165.7950 C.ar    1  UNL1       -0.0008
     25 C         142.1601  140.2341  167.2440 C.ar    1  UNL1        0.0168
     26 C         140.8199  140.2301  167.9178 C.ar    1  UNL1        0.0830
     27 N         139.5896  140.5979  167.1425 N.ar    1  UNL1       -0.2462
     28 C         139.6994  140.9698  165.6935 C.ar    1  UNL1        0.0949
     29 C         140.7101  139.8582  169.3668 C.3     1  UNL1        0.1232
     30 C         142.1406  139.4069  169.3594 C.3     1  UNL1        0.0355
     31 C         139.2796  140.3095  169.3742 C.3     1  UNL1        0.0355
     32 O         140.6003  139.4863  170.8158 O.3     1  UNL1       -0.3812
     33 H         141.4487  139.1310  171.1236 H       1  UNL1        0.2107
@<TRIPOS>BOND
     1    16    17    1
     2    17    18    1
     3    17    15    1
     4    15     9    1
     5     9    10   ar
     6    10    11   ar
     7    11     1    1
     8     1     2    1
     9     2     3    2
    10     3     4    1
    11     4     5    1
    12     5     6    2
    13     5     7    1
    14     7     8    2
    15     1    23    1
    16    23    24   ar
    17    24    25   ar
    18    25    26   ar
    19    26    29    1
    20    29    30    1
    21    29    31    1
    22    29    32    1
    23    26    27   ar
    24    27    28   ar
    25    11    12   ar
    26    12    13   ar
    27    13    14   ar
    28    14    19    1
    29    19    20    1
    30    20    21    1
    31    20    22    1
    32    14     9   ar
    33     8     2    1
    34    28    23   ar
    35    32    33    1
@<TRIPOS>MOLECULE
*****
 33 35 0 0 0
SMALL
GASTEIGER

@<TRIPOS>ATOM
      1 C         142.6412  141.7788  160.8554 C.3     1  UNL1        0.0693
      2 C         141.7450  142.9751  160.9794 C.2     1  UNL1       -0.0014
      3 C         142.0182  144.0114  162.0291 C.2     1  UNL1       -0.0188
      4 C         141.1220  145.2077  162.1531 C.3     1  UNL1        0.1129
      5 C         139.9526  145.3680  161.2275 C.2     1  UNL1        0.2500
      6 O         139.0563  146.5644  161.3515 O.2     1  UNL1       -0.2726
      7 N         139.6794  144.3319  160.1779 N.am    1  UNL1       -0.1779
      8 C         140.5756  143.1354  160.0538 C.2     1  UNL1        0.0846
      9 C         141.7661  138.6237  163.0982 C.ar    1  UNL1        0.1719
     10 C         141.7103  139.6366  161.9933 C.ar    1  UNL1        0.0364
     11 C         142.6972  140.7658  161.9604 C.ar    1  UNL1       -0.0110
     12 C         143.7399  140.8820  163.0323 C.ar    1  UNL1       -0.0003
     13 C         143.7958  139.8690  164.1371 C.ar    1  UNL1        0.0399
     14 C         142.8089  138.7399  164.1701 C.ar    1  UNL1        0.1779
     15 O         140.7792  137.4946  163.1311 O.3     1  UNL1       -0.4761
     16 C         138.3469  138.0404  162.3992 C.3     1  UNL1        0.0472
     17 C         139.3458  137.7614  163.4830 C.3     1  UNL1        0.1663
     18 C         138.9110  137.7493  164.9186 C.3     1  UNL1        0.0472
     19 O         142.8649  137.7269  165.2750 O.3     1  UNL1       -0.4205
     20 C         143.5645  138.0567  166.5602 C.3     1  UNL1        0.5087
     21 F         144.6629  137.1688  167.0655 F       1  UNL1       -0.1550
     22 F         143.1658  139.2744  167.3401 F       1  UNL1       -0.1550
     23 C         143.4816  141.5953  159.6265 C.ar    1  UNL1        0.0048
     24 C         144.3494  142.7167  159.1371 C.ar    1  UNL1       -0.0008
     25 C         145.1897  142.5332  157.9082 C.ar    1  UNL1        0.0168
     26 C         145.1622  141.2283  157.1687 C.ar    1  UNL1        0.0830
     27 N         144.2944  140.1071  157.6582 N.ar    1  UNL1       -0.2462
     28 C         143.4541  140.2906  158.8871 C.ar    1  UNL1        0.0949
     29 C         146.0025  141.0449  155.9398 C.3     1  UNL1        0.1232
     30 C         145.1774  139.8533  155.5535 C.3     1  UNL1        0.0355
     31 C         146.8276  142.2365  156.3262 C.3     1  UNL1        0.0355
     32 O         146.8429  140.8614  154.7109 O.3     1  UNL1       -0.3812
     33 H         146.5209  140.0953  154.2105 H       1  UNL1        0.2107
@<TRIPOS>BOND
     1    16    17    1
     2    17    18    1
     3    17    15    1
     4    15     9    1
     5     9    10   ar
     6    10    11   ar
     7    11     1    1
     8     1     2    1
     9     2     3    2
    10     3     4    1
    11     4     5    1
    12     5     6    2
    13     5     7    1
    14     7     8    2
    15     1    23    1
    16    23    24   ar
    17    24    25   ar
    18    25    26   ar
    19    26    29    1
    20    29    30    1
    21    29    31    1
    22    29    32    1
    23    26    27   ar
    24    27    28   ar
    25    11    12   ar
    26    12    13   ar
    27    13    14   ar
    28    14    19    1
    29    19    20    1
    30    20    21    1
    31    20    22    1
    32    14     9   ar
    33     8     2    1
    34    28    23   ar
    35    32    33    1
@<TRIPOS>MOLECULE
*****
 33 35 0 0 0
SMALL
GASTEIGER

@<TRIPOS>ATOM
      1 C         139.4328  139.8525  158.6911 C.3     1  UNL1        0.0693
      2 C         138.7619  140.9293  157.8908 C.2     1  UNL1       -0.0014
      3 C         139.4650  142.2319  157.6482 C.2     1  UNL1       -0.0188
      4 C         138.7941  143.3087  156.8480 C.3     1  UNL1        0.1129
      5 C         137.4201  143.0829  156.2903 C.2     1  UNL1        0.2500
      6 O         136.7492  144.1597  155.4900 O.2     1  UNL1       -0.2726
      7 N         136.7170  141.7803  156.5328 N.am    1  UNL1       -0.1779
      8 C         137.3879  140.7035  157.3331 C.2     1  UNL1        0.0846
      9 C         137.9346  140.5209  162.3048 C.ar    1  UNL1        0.1719
     10 C         138.2866  140.7106  160.8591 C.ar    1  UNL1        0.0364
     11 C         139.0807  139.6628  160.1368 C.ar    1  UNL1       -0.0110
     12 C         139.5226  138.4254  160.8602 C.ar    1  UNL1       -0.0003
     13 C         139.1705  138.2357  162.3059 C.ar    1  UNL1        0.0399
     14 C         138.3765  139.2835  163.0282 C.ar    1  UNL1        0.1779
     15 O         137.1405  141.5687  163.0270 O.3     1  UNL1       -0.4761
     16 C         138.7088  142.4653  164.8942 C.3     1  UNL1        0.0472
     17 C         137.8423  142.7136  163.6952 C.3     1  UNL1        0.1663
     18 C         137.6777  144.1070  163.1645 C.3     1  UNL1        0.0472
     19 O         138.0244  139.0938  164.4739 O.3     1  UNL1       -0.4205
     20 C         138.8657  138.2040  165.3402 C.3     1  UNL1        0.5087
     21 F         138.3280  136.8827  165.8041 F       1  UNL1       -0.1550
     22 F         140.2448  138.6355  165.7427 F       1  UNL1       -0.1550
     23 C         140.4558  138.9654  158.0457 C.ar    1  UNL1        0.0048
     24 C         140.0181  137.8398  157.1560 C.ar    1  UNL1       -0.0008
     25 C         141.0411  136.9527  156.5106 C.ar    1  UNL1        0.0168
     26 C         142.5018  137.1913  156.7548 C.ar    1  UNL1        0.0830
     27 N         142.9394  138.3169  157.6444 N.ar    1  UNL1       -0.2462
     28 C         141.9164  139.2040  158.2898 C.ar    1  UNL1        0.0949
     29 C         143.5247  136.3042  156.1094 C.3     1  UNL1        0.1232
     30 C         144.0739  137.4822  155.3607 C.3     1  UNL1        0.0355
     31 C         142.9756  135.1261  156.8581 C.3     1  UNL1        0.0355
     32 O         144.5477  135.4171  155.4640 O.3     1  UNL1       -0.3812
     33 H         145.1031  135.9441  154.8684 H       1  UNL1        0.2107
@<TRIPOS>BOND
     1    16    17    1
     2    17    18    1
     3    17    15    1
     4    15     9    1
     5     9    10   ar
     6    10    11   ar
     7    11     1    1
     8     1     2    1
     9     2     3    2
    10     3     4    1
    11     4     5    1
    12     5     6    2
    13     5     7    1
    14     7     8    2
    15     1    23    1
    16    23    24   ar
    17    24    25   ar
    18    25    26   ar
    19    26    29    1
    20    29    30    1
    21    29    31    1
    22    29    32    1
    23    26    27   ar
    24    27    28   ar
    25    11    12   ar
    26    12    13   ar
    27    13    14   ar
    28    14    19    1
    29    19    20    1
    30    20    21    1
    31    20    22    1
    32    14     9   ar
    33     8     2    1
    34    28    23   ar
    35    32    33    1
@<TRIPOS>MOLECULE
*****
 33 35 0 0 0
SMALL
GASTEIGER

@<TRIPOS>ATOM
      1 C         140.8715  141.3171  164.0924 C.3     1  UNL1        0.0693
      2 C         140.6057  142.7049  163.5894 C.2     1  UNL1       -0.0014
      3 C         141.7371  143.6788  163.4418 C.2     1  UNL1       -0.0188
      4 C         141.4712  145.0666  162.9387 C.3     1  UNL1        0.1129
      5 C         140.0740  145.4808  162.5833 C.2     1  UNL1        0.2500
      6 O         139.8082  146.8686  162.0802 O.2     1  UNL1       -0.2726
      7 N         138.9427  144.5070  162.7308 N.am    1  UNL1       -0.1779
      8 C         139.2085  143.1191  163.2339 C.2     1  UNL1        0.0846
      9 C         140.7225  138.6517  161.1558 C.ar    1  UNL1        0.1719
     10 C         140.3103  139.7303  162.1132 C.ar    1  UNL1        0.0364
     11 C         141.2838  140.2384  163.1350 C.ar    1  UNL1       -0.0110
     12 C         142.6695  139.6679  163.1994 C.ar    1  UNL1       -0.0003
     13 C         143.0817  138.5892  162.2420 C.ar    1  UNL1        0.0399
     14 C         142.1082  138.0812  161.2202 C.ar    1  UNL1        0.1779
     15 O         139.7489  138.1436  160.1340 O.3     1  UNL1       -0.4761
     16 C         139.3350  140.3113  158.7629 C.3     1  UNL1        0.0472
     17 C         139.6185  138.8391  158.8114 C.3     1  UNL1        0.1663
     18 C         139.7716  138.0625  157.5373 C.3     1  UNL1        0.0472
     19 O         142.5204  137.0025  160.2628 O.3     1  UNL1       -0.4205
     20 C         142.9132  137.3557  158.8589 C.3     1  UNL1        0.5087
     21 F         143.2393  138.7768  158.5063 F       1  UNL1       -0.1550
     22 F         142.9798  136.2879  157.8075 F       1  UNL1       -0.1550
     23 C         140.7251  141.0078  165.5529 C.ar    1  UNL1        0.0048
     24 C         139.5522  140.2072  166.0361 C.ar    1  UNL1       -0.0008
     25 C         139.4059  139.8979  167.4965 C.ar    1  UNL1        0.0168
     26 C         140.4324  140.3892  168.4738 C.ar    1  UNL1        0.0830
     27 N         141.6052  141.1898  167.9906 N.ar    1  UNL1       -0.2462
     28 C         141.7516  141.4991  166.5301 C.ar    1  UNL1        0.0949
     29 C         140.2860  140.0799  169.9342 C.3     1  UNL1        0.1232
     30 C         141.6943  139.5646  169.9662 C.3     1  UNL1        0.0355
     31 C         138.8776  140.5952  169.9022 C.3     1  UNL1        0.0355
     32 O         140.1396  139.7706  171.3947 O.3     1  UNL1       -0.3812
     33 H         140.9667  139.3898  171.7290 H       1  UNL1        0.2107
@<TRIPOS>BOND
     1    16    17    1
     2    17    18    1
     3    17    15    1
     4    15     9    1
     5     9    10   ar
     6    10    11   ar
     7    11     1    1
     8     1     2    1
     9     2     3    2
    10     3     4    1
    11     4     5    1
    12     5     6    2
    13     5     7    1
    14     7     8    2
    15     1    23    1
    16    23    24   ar
    17    24    25   ar
    18    25    26   ar
    19    26    29    1
    20    29    30    1
    21    29    31    1
    22    29    32    1
    23    26    27   ar
    24    27    28   ar
    25    11    12   ar
    26    12    13   ar
    27    13    14   ar
    28    14    19    1
    29    19    20    1
    30    20    21    1
    31    20    22    1
    32    14     9   ar
    33     8     2    1
    34    28    23   ar
    35    32    33    1
@<TRIPOS>MOLECULE
*****
 33 35 0 0 0
SMALL
GASTEIGER

@<TRIPOS>ATOM
      1 C         140.9939  139.4700  159.9941 C.3     1  UNL1        0.0693
      2 C         141.2016  140.9471  159.8361 C.2     1  UNL1       -0.0014
      3 C         140.0239  141.8514  159.6228 C.2     1  UNL1       -0.0188
      4 C         140.2316  143.3285  159.4648 C.3     1  UNL1        0.1129
      5 C         141.6168  143.9014  159.5201 C.2     1  UNL1        0.2500
      6 O         141.8244  145.3785  159.3621 O.2     1  UNL1       -0.2726
      7 N         142.7944  142.9971  159.7334 N.am    1  UNL1       -0.1779
      8 C         142.5868  141.5199  159.8915 C.2     1  UNL1        0.0846
      9 C         140.8294  137.9620  163.6614 C.ar    1  UNL1        0.1719
     10 C         141.3784  138.5090  162.3772 C.ar    1  UNL1        0.0364
     11 C         140.4449  138.9229  161.2784 C.ar    1  UNL1       -0.0110
     12 C         138.9624  138.7897  161.4639 C.ar    1  UNL1       -0.0003
     13 C         138.4134  138.2426  162.7481 C.ar    1  UNL1        0.0399
     14 C         139.3469  137.8288  163.8469 C.ar    1  UNL1        0.1779
     15 O         141.7629  137.5481  164.7602 O.3     1  UNL1       -0.4761
     16 C         143.9111  138.7520  165.5885 C.3     1  UNL1        0.0472
     17 C         142.4203  138.5887  165.6175 C.3     1  UNL1        0.1663
     18 C         141.5868  139.4660  166.5040 C.3     1  UNL1        0.0472
     19 O         138.7979  137.2817  165.1312 O.3     1  UNL1       -0.4205
     20 C         138.0770  138.1876  166.0849 C.3     1  UNL1        0.5087
     21 F         137.2954  137.6064  167.2258 F       1  UNL1       -0.1550
     22 F         138.1376  139.6746  165.8978 F       1  UNL1       -0.1550
     23 C         141.3353  138.5399  158.8679 C.ar    1  UNL1        0.0048
     24 C         140.3011  138.2006  157.8357 C.ar    1  UNL1       -0.0008
     25 C         140.6425  137.2705  156.7095 C.ar    1  UNL1        0.0168
     26 C         142.0181  136.6797  156.6155 C.ar    1  UNL1        0.0830
     27 N         143.0523  137.0190  157.6476 N.ar    1  UNL1       -0.2462
     28 C         142.7109  137.9491  158.7739 C.ar    1  UNL1        0.0949
     29 C         142.3595  135.7496  155.4893 C.3     1  UNL1        0.1232
     30 C         143.8125  135.8472  155.8491 C.3     1  UNL1        0.0355
     31 C         140.9066  135.6521  155.1294 C.3     1  UNL1        0.0355
     32 O         142.7009  134.8195  154.3630 O.3     1  UNL1       -0.3812
     33 H         143.6603  134.6785  154.3397 H       1  UNL1        0.2107
@<TRIPOS>BOND
     1    16    17    1
     2    17    18    1
     3    17    15    1
     4    15     9    1
     5     9    10   ar
     6    10    11   ar
     7    11     1    1
     8     1     2    1
     9     2     3    2
    10     3     4    1
    11     4     5    1
    12     5     6    2
    13     5     7    1
    14     7     8    2
    15     1    23    1
    16    23    24   ar
    17    24    25   ar
    18    25    26   ar
    19    26    29    1
    20    29    30    1
    21    29    31    1
    22    29    32    1
    23    26    27   ar
    24    27    28   ar
    25    11    12   ar
    26    12    13   ar
    27    13    14   ar
    28    14    19    1
    29    19    20    1
    30    20    21    1
    31    20    22    1
    32    14     9   ar
    33     8     2    1
    34    28    23   ar
    35    32    33    1
@<TRIPOS>MOLECULE
*****
 33 35 0 0 0
SMALL
GASTEIGER

@<TRIPOS>ATOM
      1 C         140.8665  140.1174  159.8413 C.3     1  UNL1        0.0693
      2 C         141.1924  141.5507  159.5421 C.2     1  UNL1       -0.0014
      3 C         140.3102  142.3448  158.6249 C.2     1  UNL1       -0.0188
      4 C         140.6361  143.7780  158.3258 C.3     1  UNL1        0.1129
      5 C         141.8442  144.4173  158.9438 C.2     1  UNL1        0.2500
      6 O         142.1701  145.8505  158.6446 O.2     1  UNL1       -0.2726
      7 N         142.7264  143.6232  159.8609 N.am    1  UNL1       -0.1779
      8 C         142.4005  142.1899  160.1601 C.2     1  UNL1        0.0846
      9 C         138.7378  140.3904  163.1796 C.ar    1  UNL1        0.1719
     10 C         139.3819  140.7566  161.8754 C.ar    1  UNL1        0.0364
     11 C         140.2224  139.7512  161.1456 C.ar    1  UNL1       -0.0110
     12 C         140.4188  138.3795  161.7199 C.ar    1  UNL1       -0.0003
     13 C         139.7746  138.0133  163.0241 C.ar    1  UNL1        0.0399
     14 C         138.9342  139.0188  163.7539 C.ar    1  UNL1        0.1779
     15 O         137.8973  141.3959  163.9094 O.3     1  UNL1       -0.4761
     16 C         137.9162  143.9475  164.3982 C.3     1  UNL1        0.0472
     17 C         138.5417  142.5920  164.5450 C.3     1  UNL1        0.1663
     18 C         139.8116  142.4328  165.3274 C.3     1  UNL1        0.0472
     19 O         138.2900  138.6525  165.0582 O.3     1  UNL1       -0.4205
     20 C         138.9697  138.9914  166.3516 C.3     1  UNL1        0.5087
     21 F         138.1766  139.0470  167.6237 F       1  UNL1       -0.1550
     22 F         140.4426  139.2749  166.3732 F       1  UNL1       -0.1550
     23 C         141.1847  139.0504  158.8362 C.ar    1  UNL1        0.0048
     24 C         140.0953  138.4809  157.9766 C.ar    1  UNL1       -0.0008
     25 C         140.4135  137.4138  156.9716 C.ar    1  UNL1        0.0168
     26 C         141.8212  136.9162  156.8261 C.ar    1  UNL1        0.0830
     27 N         142.9105  137.4857  157.6857 N.ar    1  UNL1       -0.2462
     28 C         142.5923  138.5528  158.6908 C.ar    1  UNL1        0.0949
     29 C         142.1394  135.8492  155.8211 C.3     1  UNL1        0.1232
     30 C         143.4937  135.6696  156.4405 C.3     1  UNL1        0.0355
     31 C         140.7851  136.0287  155.2017 C.3     1  UNL1        0.0355
     32 O         142.4576  134.7821  154.8160 O.3     1  UNL1       -0.3812
     33 H         143.3519  134.4427  154.9770 H       1  UNL1        0.2107
@<TRIPOS>BOND
     1    16    17    1
     2    17    18    1
     3    17    15    1
     4    15     9    1
     5     9    10   ar
     6    10    11   ar
     7    11     1    1
     8     1     2    1
     9     2     3    2
    10     3     4    1
    11     4     5    1
    12     5     6    2
    13     5     7    1
    14     7     8    2
    15     1    23    1
    16    23    24   ar
    17    24    25   ar
    18    25    26   ar
    19    26    29    1
    20    29    30    1
    21    29    31    1
    22    29    32    1
    23    26    27   ar
    24    27    28   ar
    25    11    12   ar
    26    12    13   ar
    27    13    14   ar
    28    14    19    1
    29    19    20    1
    30    20    21    1
    31    20    22    1
    32    14     9   ar
    33     8     2    1
    34    28    23   ar
    35    32    33    1
@<TRIPOS>MOLECULE
*****
 33 35 0 0 0
SMALL
GASTEIGER

@<TRIPOS>ATOM
      1 C         139.7805  140.1643  158.9829 C.3     1  UNL1        0.0693
      2 C         140.6843  139.0946  158.4455 C.2     1  UNL1       -0.0014
      3 C         140.2317  138.2344  157.3030 C.2     1  UNL1       -0.0188
      4 C         141.1355  137.1647  156.7656 C.3     1  UNL1        0.1129
      5 C         142.4919  136.9551  157.3707 C.2     1  UNL1        0.2500
      6 O         143.3957  135.8854  156.8334 O.2     1  UNL1       -0.2726
      7 N         142.9446  137.8152  158.5132 N.am    1  UNL1       -0.1779
      8 C         142.0407  138.8850  159.0506 C.2     1  UNL1        0.0846
      9 C         139.3175  141.1658  162.7951 C.ar    1  UNL1        0.1719
     10 C         139.7596  141.2073  161.3623 C.ar    1  UNL1        0.0364
     11 C         139.3384  140.1227  160.4157 C.ar    1  UNL1       -0.0110
     12 C         138.4751  138.9965  160.9018 C.ar    1  UNL1       -0.0003
     13 C         138.0330  138.9549  162.3345 C.ar    1  UNL1        0.0399
     14 C         138.4542  140.0396  163.2812 C.ar    1  UNL1        0.1779
     15 O         139.7387  142.2504  163.7417 O.3     1  UNL1       -0.4761
     16 C         137.7035  143.7118  163.0544 C.3     1  UNL1        0.0472
     17 C         138.8296  143.4153  163.9998 C.3     1  UNL1        0.1663
     18 C         139.0467  144.2838  165.2035 C.3     1  UNL1        0.0472
     19 O         138.0121  139.9979  164.7140 O.3     1  UNL1       -0.4205
     20 C         138.4909  138.8985  165.6150 C.3     1  UNL1        0.5087
     21 F         138.6444  137.5049  165.0816 F       1  UNL1       -0.1550
     22 F         138.8163  139.1926  167.0494 F       1  UNL1       -0.1550
     23 C         139.3188  141.2757  158.0875 C.ar    1  UNL1        0.0048
     24 C         140.2813  142.3444  157.6613 C.ar    1  UNL1       -0.0008
     25 C         139.8195  143.4558  156.7660 C.ar    1  UNL1        0.0168
     26 C         138.3954  143.4984  156.2968 C.ar    1  UNL1        0.0830
     27 N         137.4330  142.4297  156.7229 N.ar    1  UNL1       -0.2462
     28 C         137.8948  141.3183  157.6183 C.ar    1  UNL1        0.0949
     29 C         137.9337  144.6098  155.4014 C.3     1  UNL1        0.1232
     30 C         136.7553  143.7820  154.9816 C.3     1  UNL1        0.0355
     31 C         139.1121  145.4375  155.8212 C.3     1  UNL1        0.0355
     32 O         137.4720  145.7211  154.5060 O.3     1  UNL1       -0.3812
     33 H         136.6540  145.4560  154.0571 H       1  UNL1        0.2107
@<TRIPOS>BOND
     1    16    17    1
     2    17    18    1
     3    17    15    1
     4    15     9    1
     5     9    10   ar
     6    10    11   ar
     7    11     1    1
     8     1     2    1
     9     2     3    2
    10     3     4    1
    11     4     5    1
    12     5     6    2
    13     5     7    1
    14     7     8    2
    15     1    23    1
    16    23    24   ar
    17    24    25   ar
    18    25    26   ar
    19    26    29    1
    20    29    30    1
    21    29    31    1
    22    29    32    1
    23    26    27   ar
    24    27    28   ar
    25    11    12   ar
    26    12    13   ar
    27    13    14   ar
    28    14    19    1
    29    19    20    1
    30    20    21    1
    31    20    22    1
    32    14     9   ar
    33     8     2    1
    34    28    23   ar
    35    32    33    1
