@<TRIPOS>MOLECULE
*****
 24 28 0 0 0
SMALL
GASTEIGER

@<TRIPOS>ATOM
      1 C         142.6596  139.5452  169.4966 C.ar    1  UNL1        0.2381
      2 N         143.4384  140.1965  170.6008 N.ar    1  UNL1       -0.0528
      3 O         144.1401  139.1180  171.3718 O.2     1  UNL1       -0.3369
      4 C         143.7950  137.8001  170.7441 C.ar    1  UNL1        0.2375
      5 N         142.8801  138.0641  169.5852 N.ar    1  UNL1       -0.1881
      6 C         144.9327  135.6963  171.9464 C.3     1  UNL1        0.0952
      7 C         146.0723  136.1245  172.5444 C.3     1  UNL1        0.0814
      8 N         146.7717  136.3371  172.9234 N.3     1  UNL1       -0.2723
      9 C         146.3696  134.8953  173.0210 C.3     1  UNL1        0.0721
     10 C         145.1093  134.4218  172.3596 C.3     1  UNL1        0.0179
     11 C         144.2512  135.3901  171.6007 C.3     1  UNL1        0.0130
     12 C         144.6532  136.8318  171.5031 C.3     1  UNL1        0.0179
     13 C         145.9135  137.3054  172.1645 C.3     1  UNL1        0.0721
     14 C         141.0826  141.7749  166.7386 C.ar    1  UNL1        0.1470
     15 C         139.9207  140.8990  167.1027 C.ar    1  UNL1        0.0408
     16 C         140.3700  139.9571  168.1802 C.ar    1  UNL1        0.0439
     17 C         141.8097  140.2509  168.4820 C.ar    1  UNL1        0.1842
     18 O         142.2501  141.3744  167.5911 O.2     1  UNL1       -0.4502
     19 C         139.8121  144.7076  164.3860 C.ar    1  UNL1        0.0208
     20 C         141.0687  145.0324  163.6340 C.ar    1  UNL1        0.0989
     21 N         142.3300  144.2713  163.9170 N.ar    1  UNL1       -0.2422
     22 C         142.3346  143.1856  164.9518 C.ar    1  UNL1        0.1019
     23 C         141.0780  142.8608  165.7038 C.ar    1  UNL1        0.0537
     24 C         139.8167  143.6218  165.4208 C.ar    1  UNL1        0.0062
@<TRIPOS>BOND
     1    19    20   ar
     2    20    21   ar
     3    21    22   ar
     4    22    23   ar
     5    23    14    1
     6    14    15   ar
     7    15    16   ar
     8    16    17   ar
     9    17     1    1
    10     1     2   ar
    11     2     3   ar
    12     3     4   ar
    13     4     6    1
    14     6     7    1
    15     7     8    1
    16     8     9    1
    17     9    10    1
    18    10    11    1
    19    11    12    1
    20    12    13    1
    21     4     5   ar
    22    17    18   ar
    23    23    24   ar
    24    24    19   ar
    25    18    14   ar
    26     5     1   ar
    27    11     6    1
    28    13     8    1
@<TRIPOS>MOLECULE
*****
 24 28 0 0 0
SMALL
GASTEIGER

@<TRIPOS>ATOM
      1 C         142.6301  139.6037  169.5751 C.ar    1  UNL1        0.2381
      2 N         143.4661  140.2287  170.6524 N.ar    1  UNL1       -0.0528
      3 O         144.1714  139.1285  171.3887 O.2     1  UNL1       -0.3369
      4 C         143.7713  137.8235  170.7665 C.ar    1  UNL1        0.2375
      5 N         142.8188  138.1173  169.6457 N.ar    1  UNL1       -0.1881
      6 C         144.9046  135.6851  171.9103 C.3     1  UNL1        0.0952
      7 C         146.0235  136.1012  172.5543 C.3     1  UNL1        0.0814
      8 N         146.7104  136.3060  172.9594 N.3     1  UNL1       -0.2723
      9 C         146.3240  134.8570  172.9876 C.3     1  UNL1        0.0721
     10 C         145.0867  134.3968  172.2754 C.3     1  UNL1        0.0179
     11 C         144.2358  135.3856  171.5351 C.3     1  UNL1        0.0130
     12 C         144.6222  136.8347  171.5069 C.3     1  UNL1        0.0179
     13 C         145.8595  137.2949  172.2191 C.3     1  UNL1        0.0721
     14 C         140.2949  140.8240  166.7250 C.ar    1  UNL1        0.1470
     15 C         140.5395  142.1042  167.4674 C.ar    1  UNL1        0.0408
     16 C         141.4440  141.8029  168.6254 C.ar    1  UNL1        0.0439
     17 C         141.7585  140.3364  168.5987 C.ar    1  UNL1        0.1842
     18 O         141.0482  139.7314  167.4242 O.2     1  UNL1       -0.4502
     19 C         137.8210  141.6727  163.7401 C.ar    1  UNL1        0.0208
     20 C         137.7480  140.3449  163.0461 C.ar    1  UNL1        0.0989
     21 N         138.5241  139.1768  163.5785 N.ar    1  UNL1       -0.2422
     22 C         139.3729  139.3365  164.8048 C.ar    1  UNL1        0.1019
     23 C         139.4459  140.6643  165.4987 C.ar    1  UNL1        0.0537
     24 C         138.6700  141.8324  164.9664 C.ar    1  UNL1        0.0062
@<TRIPOS>BOND
     1    19    20   ar
     2    20    21   ar
     3    21    22   ar
     4    22    23   ar
     5    23    14    1
     6    14    15   ar
     7    15    16   ar
     8    16    17   ar
     9    17     1    1
    10     1     2   ar
    11     2     3   ar
    12     3     4   ar
    13     4     6    1
    14     6     7    1
    15     7     8    1
    16     8     9    1
    17     9    10    1
    18    10    11    1
    19    11    12    1
    20    12    13    1
    21     4     5   ar
    22    17    18   ar
    23    23    24   ar
    24    24    19   ar
    25    18    14   ar
    26     5     1   ar
    27    11     6    1
    28    13     8    1
@<TRIPOS>MOLECULE
*****
 24 28 0 0 0
SMALL
GASTEIGER

@<TRIPOS>ATOM
      1 C         138.9198  139.3701  165.1916 C.ar    1  UNL1        0.2381
      2 N         137.9387  138.9470  166.2444 N.ar    1  UNL1       -0.0528
      3 O         138.5768  139.1601  167.5851 O.2     1  UNL1       -0.3369
      4 C         139.9523  139.7148  167.3609 C.ar    1  UNL1        0.2375
      5 N         140.1643  139.8446  165.8816 N.ar    1  UNL1       -0.1881
      6 C         141.3115  140.1869  169.6182 C.3     1  UNL1        0.0952
      7 C         140.4859  140.8415  170.4723 C.3     1  UNL1        0.0814
      8 N         140.0224  141.2396  171.0242 N.3     1  UNL1       -0.2723
      9 C         141.4271  140.9162  171.4391 C.3     1  UNL1        0.0721
     10 C         142.3402  140.1923  170.4946 C.3     1  UNL1        0.0179
     11 C         141.8486  139.7919  169.1352 C.3     1  UNL1        0.0130
     12 C         140.4439  140.1153  168.7203 C.3     1  UNL1        0.0179
     13 C         139.5308  140.8391  169.6648 C.3     1  UNL1        0.0721
     14 C         138.4143  140.0057  161.3961 C.ar    1  UNL1        0.1470
     15 C         138.2880  138.5124  161.4592 C.ar    1  UNL1        0.0408
     16 C         138.4620  138.0926  162.8887 C.ar    1  UNL1        0.0439
     17 C         138.6959  139.3264  163.7091 C.ar    1  UNL1        0.1842
     18 O         138.6664  140.5088  162.7865 O.2     1  UNL1       -0.4502
     19 C         137.7374  141.0767  157.6351 C.ar    1  UNL1        0.0208
     20 C         138.0935  142.5329  157.6865 C.ar    1  UNL1        0.0989
     21 N         138.5566  143.1467  158.9746 N.ar    1  UNL1       -0.2422
     22 C         138.6635  142.3043  160.2110 C.ar    1  UNL1        0.1019
     23 C         138.3074  140.8481  160.1596 C.ar    1  UNL1        0.0537
     24 C         137.8443  140.2343  158.8716 C.ar    1  UNL1        0.0062
@<TRIPOS>BOND
     1    19    20   ar
     2    20    21   ar
     3    21    22   ar
     4    22    23   ar
     5    23    14    1
     6    14    15   ar
     7    15    16   ar
     8    16    17   ar
     9    17     1    1
    10     1     2   ar
    11     2     3   ar
    12     3     4   ar
    13     4     6    1
    14     6     7    1
    15     7     8    1
    16     8     9    1
    17     9    10    1
    18    10    11    1
    19    11    12    1
    20    12    13    1
    21     4     5   ar
    22    17    18   ar
    23    23    24   ar
    24    24    19   ar
    25    18    14   ar
    26     5     1   ar
    27    11     6    1
    28    13     8    1
@<TRIPOS>MOLECULE
*****
 24 28 0 0 0
SMALL
GASTEIGER

@<TRIPOS>ATOM
      1 C         139.5136  139.3965  164.6891 C.ar    1  UNL1        0.2381
      2 N         138.8414  138.6452  165.7998 N.ar    1  UNL1       -0.0528
      3 O         139.0301  139.4248  167.0673 O.2     1  UNL1       -0.3369
      4 C         139.8189  140.6580  166.7400 C.ar    1  UNL1        0.2375
      5 N         140.1177  140.6405  165.2701 N.ar    1  UNL1       -0.1881
      6 C         140.2942  142.2326  168.8519 C.3     1  UNL1        0.0952
      7 C         139.8547  141.5864  169.9604 C.3     1  UNL1        0.0814
      8 N         139.6031  141.2338  170.6607 N.3     1  UNL1       -0.2723
      9 C         140.2242  142.5937  170.7821 C.3     1  UNL1        0.0721
     10 C         140.7103  143.3084  169.5561 C.3     1  UNL1        0.0179
     11 C         140.5751  142.6631  168.2088 C.3     1  UNL1        0.0130
     12 C         139.9540  141.3032  168.0873 C.3     1  UNL1        0.0179
     13 C         139.4680  140.5886  169.3133 C.3     1  UNL1        0.0721
     14 C         140.3432  138.6371  160.9742 C.ar    1  UNL1        0.1470
     15 C         138.9779  138.0281  161.0966 C.ar    1  UNL1        0.0408
     16 C         138.5010  138.2384  162.5031 C.ar    1  UNL1        0.0439
     17 C         139.5715  138.9775  163.2499 C.ar    1  UNL1        0.1842
     18 O         140.7101  139.2239  162.3050 O.2     1  UNL1       -0.4502
     19 C         141.4099  138.4869  157.1545 C.ar    1  UNL1        0.0208
     20 C         142.8914  138.6941  157.2655 C.ar    1  UNL1        0.0989
     21 N         143.5234  138.8824  158.6129 N.ar    1  UNL1       -0.2422
     22 C         142.6741  138.8634  159.8490 C.ar    1  UNL1        0.1019
     23 C         141.1926  138.6561  159.7380 C.ar    1  UNL1        0.0537
     24 C         140.5605  138.4679  158.3907 C.ar    1  UNL1        0.0062
@<TRIPOS>BOND
     1    19    20   ar
     2    20    21   ar
     3    21    22   ar
     4    22    23   ar
     5    23    14    1
     6    14    15   ar
     7    15    16   ar
     8    16    17   ar
     9    17     1    1
    10     1     2   ar
    11     2     3   ar
    12     3     4   ar
    13     4     6    1
    14     6     7    1
    15     7     8    1
    16     8     9    1
    17     9    10    1
    18    10    11    1
    19    11    12    1
    20    12    13    1
    21     4     5   ar
    22    17    18   ar
    23    23    24   ar
    24    24    19   ar
    25    18    14   ar
    26     5     1   ar
    27    11     6    1
    28    13     8    1
@<TRIPOS>MOLECULE
*****
 24 28 0 0 0
SMALL
GASTEIGER

@<TRIPOS>ATOM
      1 C         138.6558  141.7646  163.4452 C.ar    1  UNL1        0.2381
      2 N         137.3695  142.2835  162.8740 N.ar    1  UNL1       -0.0528
      3 O         137.6804  142.9611  161.5724 O.2     1  UNL1       -0.3369
      4 C         139.1588  142.8609  161.3391 C.ar    1  UNL1        0.2375
      5 N         139.7615  142.1214  162.4966 N.ar    1  UNL1       -0.1881
      6 C         139.9762  144.0041  159.0609 C.3     1  UNL1        0.0952
      7 C         140.9292  144.9177  159.3720 C.3     1  UNL1        0.0814
      8 N         141.5114  145.4830  159.5117 N.3     1  UNL1       -0.2723
      9 C         141.1069  145.2785  158.0818 C.3     1  UNL1        0.0721
     10 C         140.0530  144.2682  157.7377 C.3     1  UNL1        0.0179
     11 C         139.4036  143.4623  158.8235 C.3     1  UNL1        0.0130
     12 C         139.8081  143.6667  160.2533 C.3     1  UNL1        0.0179
     13 C         140.8620  144.6771  160.5974 C.3     1  UNL1        0.0721
     14 C         139.5174  140.4007  166.9755 C.ar    1  UNL1        0.1470
     15 C         138.5736  139.3456  166.4796 C.ar    1  UNL1        0.0408
     16 C         138.1359  139.7281  165.0968 C.ar    1  UNL1        0.0439
     17 C         138.8093  141.0196  164.7381 C.ar    1  UNL1        0.1842
     18 O         139.6631  141.4353  165.8992 O.2     1  UNL1       -0.4502
     19 C         142.3469  140.1620  169.7480 C.ar    1  UNL1        0.0208
     20 C         141.5543  140.4532  170.9878 C.ar    1  UNL1        0.0989
     21 N         140.0827  140.7269  170.8900 N.ar    1  UNL1       -0.2422
     22 C         139.4038  140.7094  169.5527 C.ar    1  UNL1        0.1019
     23 C         140.1964  140.4182  168.3129 C.ar    1  UNL1        0.0537
     24 C         141.6679  140.1445  168.4106 C.ar    1  UNL1        0.0062
@<TRIPOS>BOND
     1    19    20   ar
     2    20    21   ar
     3    21    22   ar
     4    22    23   ar
     5    23    14    1
     6    14    15   ar
     7    15    16   ar
     8    16    17   ar
     9    17     1    1
    10     1     2   ar
    11     2     3   ar
    12     3     4   ar
    13     4     6    1
    14     6     7    1
    15     7     8    1
    16     8     9    1
    17     9    10    1
    18    10    11    1
    19    11    12    1
    20    12    13    1
    21     4     5   ar
    22    17    18   ar
    23    23    24   ar
    24    24    19   ar
    25    18    14   ar
    26     5     1   ar
    27    11     6    1
    28    13     8    1
@<TRIPOS>MOLECULE
*****
 24 28 0 0 0
SMALL
GASTEIGER

@<TRIPOS>ATOM
      1 C         139.2119  143.0014  161.1475 C.ar    1  UNL1        0.2381
      2 N         137.7251  142.9578  161.3407 N.ar    1  UNL1       -0.0528
      3 O         137.4282  141.9729  162.4324 O.2     1  UNL1       -0.3369
      4 C         138.7315  141.4078  162.9140 C.ar    1  UNL1        0.2375
      5 N         139.8339  142.0435  162.1199 N.ar    1  UNL1       -0.1881
      6 C         138.4726  139.6094  164.8798 C.3     1  UNL1        0.0952
      7 C         138.7859  138.3908  164.3733 C.3     1  UNL1        0.0814
      8 N         138.9669  137.6315  164.1114 N.3     1  UNL1       -0.2723
      9 C         138.5648  137.7647  165.5503 C.3     1  UNL1        0.0721
     10 C         138.2183  139.1123  166.1105 C.3     1  UNL1        0.0179
     11 C         138.2738  140.3267  165.2317 C.3     1  UNL1        0.0130
     12 C         138.6760  140.1935  163.7928 C.3     1  UNL1        0.0179
     13 C         139.0225  138.8459  163.2327 C.3     1  UNL1        0.0721
     14 C         140.4679  145.1889  158.1975 C.ar    1  UNL1        0.1470
     15 C         141.6918  145.1397  159.0634 C.ar    1  UNL1        0.0408
     16 C         141.3702  144.3142  160.2738 C.ar    1  UNL1        0.0439
     17 C         139.9476  143.8533  160.1561 C.ar    1  UNL1        0.1842
     18 O         139.3900  144.3939  158.8729 O.2     1  UNL1       -0.4502
     19 C         139.2152  147.7280  155.4166 C.ar    1  UNL1        0.0208
     20 C         140.0954  147.3435  154.2645 C.ar    1  UNL1        0.0989
     21 N         141.0998  146.2408  154.4235 N.ar    1  UNL1       -0.2422
     22 C         141.2240  145.5227  155.7344 C.ar    1  UNL1        0.1019
     23 C         140.3437  145.9071  156.8865 C.ar    1  UNL1        0.0537
     24 C         139.3393  147.0098  156.7276 C.ar    1  UNL1        0.0062
@<TRIPOS>BOND
     1    19    20   ar
     2    20    21   ar
     3    21    22   ar
     4    22    23   ar
     5    23    14    1
     6    14    15   ar
     7    15    16   ar
     8    16    17   ar
     9    17     1    1
    10     1     2   ar
    11     2     3   ar
    12     3     4   ar
    13     4     6    1
    14     6     7    1
    15     7     8    1
    16     8     9    1
    17     9    10    1
    18    10    11    1
    19    11    12    1
    20    12    13    1
    21     4     5   ar
    22    17    18   ar
    23    23    24   ar
    24    24    19   ar
    25    18    14   ar
    26     5     1   ar
    27    11     6    1
    28    13     8    1
@<TRIPOS>MOLECULE
*****
 24 28 0 0 0
SMALL
GASTEIGER

@<TRIPOS>ATOM
      1 C         141.5335  138.5852  164.0245 C.ar    1  UNL1        0.2381
      2 N         141.1832  137.1727  163.6611 N.ar    1  UNL1       -0.0528
      3 O         141.0603  137.0951  162.1681 O.2     1  UNL1       -0.3369
      4 C         141.3346  138.4596  161.6088 C.ar    1  UNL1        0.2375
      5 N         141.6271  139.3806  162.7562 N.ar    1  UNL1       -0.1881
      6 C         141.1764  138.5887  158.9397 C.3     1  UNL1        0.0952
      7 C         142.3795  138.2207  158.4330 C.3     1  UNL1        0.0814
      8 N         143.0909  138.0047  158.0792 N.3     1  UNL1       -0.2723
      9 C         141.9733  138.3877  157.1550 C.3     1  UNL1        0.0721
     10 C         140.6428  138.7947  157.7154 C.3     1  UNL1        0.0179
     11 C         140.4299  138.8187  159.2000 C.3     1  UNL1        0.0130
     12 C         141.5475  138.4357  160.1242 C.3     1  UNL1        0.0179
     13 C         142.8780  138.0287  159.5638 C.3     1  UNL1        0.0721
     14 C         141.4458  140.3027  167.5041 C.ar    1  UNL1        0.1470
     15 C         142.7304  139.5334  167.5930 C.ar    1  UNL1        0.0408
     16 C         142.9196  138.7964  166.3003 C.ar    1  UNL1        0.0439
     17 C         141.7519  139.1102  165.4125 C.ar    1  UNL1        0.1842
     18 O         140.8410  140.0412  166.1565 O.2     1  UNL1       -0.4502
     19 C         140.4043  143.5482  169.5369 C.ar    1  UNL1        0.0208
     20 C         139.7106  142.9335  170.7163 C.ar    1  UNL1        0.0989
     21 N         139.5953  141.4419  170.8249 N.ar    1  UNL1       -0.2422
     22 C         140.1737  140.5650  169.7542 C.ar    1  UNL1        0.1019
     23 C         140.8674  141.1797  168.5748 C.ar    1  UNL1        0.0537
     24 C         140.9827  142.6713  168.4662 C.ar    1  UNL1        0.0062
@<TRIPOS>BOND
     1    19    20   ar
     2    20    21   ar
     3    21    22   ar
     4    22    23   ar
     5    23    14    1
     6    14    15   ar
     7    15    16   ar
     8    16    17   ar
     9    17     1    1
    10     1     2   ar
    11     2     3   ar
    12     3     4   ar
    13     4     6    1
    14     6     7    1
    15     7     8    1
    16     8     9    1
    17     9    10    1
    18    10    11    1
    19    11    12    1
    20    12    13    1
    21     4     5   ar
    22    17    18   ar
    23    23    24   ar
    24    24    19   ar
    25    18    14   ar
    26     5     1   ar
    27    11     6    1
    28    13     8    1
@<TRIPOS>MOLECULE
*****
 24 28 0 0 0
SMALL
GASTEIGER

@<TRIPOS>ATOM
      1 C         140.7098  144.6322  161.6334 C.ar    1  UNL1        0.2381
      2 N         142.1306  144.5444  161.1607 N.ar    1  UNL1       -0.0528
      3 O         142.1659  144.9581  159.7193 O.2     1  UNL1       -0.3369
      4 C         140.7669  145.3015  159.3012 C.ar    1  UNL1        0.2375
      5 N         139.8670  145.1001  160.4842 N.ar    1  UNL1       -0.1881
      6 C         140.5586  146.0773  156.7477 C.3     1  UNL1        0.0952
      7 C         141.6076  145.5530  156.0662 C.3     1  UNL1        0.0814
      8 N         142.2265  145.2569  155.6110 N.3     1  UNL1       -0.2723
      9 C         141.2162  146.1044  154.8962 C.3     1  UNL1        0.0721
     10 C         140.0561  146.6843  155.6498 C.3     1  UNL1        0.0179
     11 C         139.9063  146.4167  157.1181 C.3     1  UNL1        0.0130
     12 C         140.9167  145.5691  157.8329 C.3     1  UNL1        0.0179
     13 C         142.0767  144.9893  157.0793 C.3     1  UNL1        0.0721
     14 C         139.8900  143.1959  165.1449 C.ar    1  UNL1        0.1470
     15 C         139.0327  144.4266  165.1278 C.ar    1  UNL1        0.0408
     16 C         139.2354  145.1144  163.8103 C.ar    1  UNL1        0.0439
     17 C         140.2181  144.3088  163.0132 C.ar    1  UNL1        0.1842
     18 O         140.6226  143.1230  163.8380 O.2     1  UNL1       -0.4502
     19 C         140.6845  141.6506  168.7129 C.ar    1  UNL1        0.0208
     20 C         140.2083  140.2408  168.5237 C.ar    1  UNL1        0.0989
     21 N         139.6260  139.8161  167.2082 N.ar    1  UNL1       -0.2422
     22 C         139.5199  140.8011  166.0820 C.ar    1  UNL1        0.1019
     23 C         139.9961  142.2108  166.2712 C.ar    1  UNL1        0.0537
     24 C         140.5784  142.6356  167.5867 C.ar    1  UNL1        0.0062
@<TRIPOS>BOND
     1    19    20   ar
     2    20    21   ar
     3    21    22   ar
     4    22    23   ar
     5    23    14    1
     6    14    15   ar
     7    15    16   ar
     8    16    17   ar
     9    17     1    1
    10     1     2   ar
    11     2     3   ar
    12     3     4   ar
    13     4     6    1
    14     6     7    1
    15     7     8    1
    16     8     9    1
    17     9    10    1
    18    10    11    1
    19    11    12    1
    20    12    13    1
    21     4     5   ar
    22    17    18   ar
    23    23    24   ar
    24    24    19   ar
    25    18    14   ar
    26     5     1   ar
    27    11     6    1
    28    13     8    1
@<TRIPOS>MOLECULE
*****
 24 28 0 0 0
SMALL
GASTEIGER

@<TRIPOS>ATOM
      1 C         143.0138  137.8095  158.3338 C.ar    1  UNL1        0.2381
      2 N         143.5875  139.1559  158.0049 N.ar    1  UNL1       -0.0528
      3 O         144.0088  139.8065  159.2892 O.2     1  UNL1       -0.3369
      4 C         143.6954  138.8622  160.4118 C.ar    1  UNL1        0.2375
      5 N         143.0805  137.6281  159.8213 N.ar    1  UNL1       -0.1881
      6 C         144.3580  139.7971  162.8310 C.3     1  UNL1        0.0952
      7 C         144.7226  141.0959  162.6900 C.3     1  UNL1        0.0814
      8 N         144.9522  141.8858  162.6542 N.3     1  UNL1       -0.2723
      9 C         144.9759  141.2431  164.0093 C.3     1  UNL1        0.0721
     10 C         144.5727  139.8068  164.1652 C.3     1  UNL1        0.0179
     11 C         144.1459  139.0131  162.9660 C.3     1  UNL1        0.0130
     12 C         144.1222  139.6559  161.6109 C.3     1  UNL1        0.0179
     13 C         144.5254  141.0922  161.4550 C.3     1  UNL1        0.0721
     14 C         142.1294  134.7855  156.0670 C.ar    1  UNL1        0.1470
     15 C         141.1317  135.8020  155.5964 C.ar    1  UNL1        0.0408
     16 C         141.3416  137.0585  156.3884 C.ar    1  UNL1        0.0439
     17 C         142.4690  136.8186  157.3483 C.ar    1  UNL1        0.1842
     18 O         142.9559  135.4138  157.1497 O.2     1  UNL1       -0.4502
     19 C         141.2065  131.2127  154.6064 C.ar    1  UNL1        0.0208
     20 C         142.5665  130.5881  154.5047 C.ar    1  UNL1        0.0989
     21 N         143.7808  131.3627  154.9238 N.ar    1  UNL1       -0.2422
     22 C         143.6351  132.7618  155.4445 C.ar    1  UNL1        0.1019
     23 C         142.2751  133.3864  155.5462 C.ar    1  UNL1        0.0537
     24 C         141.0609  132.6118  155.1271 C.ar    1  UNL1        0.0062
@<TRIPOS>BOND
     1    19    20   ar
     2    20    21   ar
     3    21    22   ar
     4    22    23   ar
     5    23    14    1
     6    14    15   ar
     7    15    16   ar
     8    16    17   ar
     9    17     1    1
    10     1     2   ar
    11     2     3   ar
    12     3     4   ar
    13     4     6    1
    14     6     7    1
    15     7     8    1
    16     8     9    1
    17     9    10    1
    18    10    11    1
    19    11    12    1
    20    12    13    1
    21     4     5   ar
    22    17    18   ar
    23    23    24   ar
    24    24    19   ar
    25    18    14   ar
    26     5     1   ar
    27    11     6    1
    28    13     8    1
