@<TRIPOS>MOLECULE
*****
 23 26 0 0 0
SMALL
GASTEIGER

@<TRIPOS>ATOM
      1 C         141.3473  142.0720  168.1250 C.3     1  UNL1        0.0353
      2 C         142.4551  141.8458  169.1106 C.3     1  UNL1        0.0225
      3 C         142.2902  142.8329  170.2279 C.3     1  UNL1        0.0689
      4 N         141.0805  143.6692  169.9329 N.3     1  UNL1       -0.2972
      5 C         140.4977  143.1990  168.6332 C.3     1  UNL1        0.0726
      6 H         141.3482  144.6506  169.8573 H       1  UNL1        0.1233
      7 C         140.3744  142.0623  166.9832 C.2     1  UNL1       -0.0387
      8 C         139.6854  140.7876  166.5958 C.2     1  UNL1       -0.0066
      9 C         138.7126  140.7779  165.4540 C.2     1  UNL1        0.0182
     10 C         138.4289  142.0431  164.6998 C.2     1  UNL1        0.0777
     11 N         137.5260  142.3385  163.5389 N.2     1  UNL1       -0.2442
     12 C         137.6571  143.7958  163.2090 C.2     1  UNL1        0.0985
     13 C         138.6409  144.4011  164.1659 C.2     1  UNL1        0.0182
     14 C         139.1180  143.3178  165.0872 C.2     1  UNL1        0.0011
     15 C         140.0907  143.3275  166.2290 C.3     1  UNL1        0.0499
     16 C         141.9934  140.9431  167.3781 C.3     1  UNL1        0.0315
     17 F         146.0412  142.1022  163.1035 F       1  UNL1       -0.2042
     18 C         145.0293  141.8124  164.1721 C.ar    1  UNL1        0.1401
     19 C         144.5866  142.9034  165.1015 C.ar    1  UNL1        0.0293
     20 C         143.5746  142.6136  166.1702 C.ar    1  UNL1       -0.0020
     21 C         143.0054  141.2329  166.3095 C.ar    1  UNL1       -0.0217
     22 C         143.4481  140.1419  165.3801 C.ar    1  UNL1       -0.0020
     23 C         144.4600  140.4315  164.3114 C.ar    1  UNL1        0.0293
@<TRIPOS>BOND
     1    17    18    1
     2    18    19   ar
     3    19    20   ar
     4    20    21   ar
     5    21    16    1
     6    16     1    1
     7     1     7    1
     8     7     8    2
     9     8     9    1
    10     9    10    2
    11    10    11    1
    12    11    12    2
    13    12    13    1
    14    13    14    2
    15    14    15    1
    16     1     2    1
    17     2     3    1
    18     3     4    1
    19     4     5    1
    20    21    22   ar
    21    22    23   ar
    22    23    18   ar
    23     5     1    1
    24    15     7    1
    25    14    10    1
    26     4     6    1
@<TRIPOS>MOLECULE
*****
 23 26 0 0 0
SMALL
GASTEIGER

@<TRIPOS>ATOM
      1 C         139.3331  139.2603  164.7889 C.3     1  UNL1        0.0353
      2 C         138.4769  139.2649  163.5574 C.3     1  UNL1        0.0225
      3 C         138.9341  138.1447  162.6708 C.3     1  UNL1        0.0689
      4 N         140.0729  137.4477  163.3544 N.3     1  UNL1       -0.2972
      5 C         140.3196  138.1372  164.6635 C.3     1  UNL1        0.0726
      6 H         140.9094  137.4993  162.7731 H       1  UNL1        0.1233
      7 C         140.0129  139.5009  166.1043 C.2     1  UNL1       -0.0387
      8 C         141.5078  139.4250  166.2009 C.2     1  UNL1       -0.0066
      9 C         142.1876  139.6656  167.5163 C.2     1  UNL1        0.0182
     10 C         141.3723  139.9821  168.7349 C.2     1  UNL1        0.0777
     11 N         141.7599  140.2646  170.1562 N.2     1  UNL1       -0.2442
     12 C         140.5045  140.5151  170.9379 C.2     1  UNL1        0.0985
     13 C         139.3410  140.3875  169.9998 C.2     1  UNL1        0.0182
     14 C         139.8774  140.0581  168.6383 C.2     1  UNL1        0.0011
     15 C         139.1977  139.8175  167.3230 C.3     1  UNL1        0.0499
     16 C         138.4889  140.4337  165.1894 C.3     1  UNL1        0.0315
     17 F         139.3431  145.7715  162.5858 F       1  UNL1       -0.2042
     18 C         139.1295  144.4370  163.2367 C.ar    1  UNL1        0.1401
     19 C         140.2928  143.6944  163.8242 C.ar    1  UNL1        0.0293
     20 C         140.0793  142.3600  164.4751 C.ar    1  UNL1       -0.0020
     21 C         138.7025  141.7681  164.5385 C.ar    1  UNL1       -0.0217
     22 C         137.5392  142.5107  163.9509 C.ar    1  UNL1       -0.0020
     23 C         137.7526  143.8452  163.3000 C.ar    1  UNL1        0.0293
@<TRIPOS>BOND
     1    17    18    1
     2    18    19   ar
     3    19    20   ar
     4    20    21   ar
     5    21    16    1
     6    16     1    1
     7     1     7    1
     8     7     8    2
     9     8     9    1
    10     9    10    2
    11    10    11    1
    12    11    12    2
    13    12    13    1
    14    13    14    2
    15    14    15    1
    16     1     2    1
    17     2     3    1
    18     3     4    1
    19     4     5    1
    20    21    22   ar
    21    22    23   ar
    22    23    18   ar
    23     5     1    1
    24    15     7    1
    25    14    10    1
    26     4     6    1
@<TRIPOS>MOLECULE
*****
 23 26 0 0 0
SMALL
GASTEIGER

@<TRIPOS>ATOM
      1 C         141.4035  141.8374  167.9756 C.3     1  UNL1        0.0353
      2 C         140.2542  142.1620  168.8831 C.3     1  UNL1        0.0225
      3 C         140.7956  142.9017  170.0704 C.3     1  UNL1        0.0689
      4 N         142.2796  143.0343  169.8967 N.3     1  UNL1       -0.2972
      5 C         142.6554  142.3765  168.6021 C.3     1  UNL1        0.0726
      6 H         142.7610  142.5759  170.6704 H       1  UNL1        0.1233
      7 C         142.3319  141.3801  166.8897 C.2     1  UNL1       -0.0387
      8 C         142.4138  139.9247  166.5366 C.2     1  UNL1       -0.0066
      9 C         143.3422  139.4674  165.4507 C.2     1  UNL1        0.0182
     10 C         144.1886  140.4657  164.7180 C.2     1  UNL1        0.0777
     11 N         145.1884  140.3131  163.6102 N.2     1  UNL1       -0.2442
     12 C         145.7244  141.6742  163.2788 C.2     1  UNL1        0.0985
     13 C         145.0558  142.6682  164.1817 C.2     1  UNL1        0.0182
     14 C         144.1066  141.9213  165.0711 C.2     1  UNL1        0.0011
     15 C         143.1783  142.3785  166.1570 C.3     1  UNL1        0.0499
     16 C         140.3459  141.2027  167.1222 C.3     1  UNL1        0.0315
     17 F         137.3387  144.5082  163.1184 F       1  UNL1       -0.2042
     18 C         138.0905  143.6818  164.1193 C.ar    1  UNL1        0.1401
     19 C         139.0346  144.3425  165.0796 C.ar    1  UNL1        0.0293
     20 C         139.7864  143.5161  166.0806 C.ar    1  UNL1       -0.0020
     21 C         139.5941  142.0291  166.1212 C.ar    1  UNL1       -0.0217
     22 C         138.6500  141.3684  165.1609 C.ar    1  UNL1       -0.0020
     23 C         137.8982  142.1947  164.1600 C.ar    1  UNL1        0.0293
@<TRIPOS>BOND
     1    17    18    1
     2    18    19   ar
     3    19    20   ar
     4    20    21   ar
     5    21    16    1
     6    16     1    1
     7     1     7    1
     8     7     8    2
     9     8     9    1
    10     9    10    2
    11    10    11    1
    12    11    12    2
    13    12    13    1
    14    13    14    2
    15    14    15    1
    16     1     2    1
    17     2     3    1
    18     3     4    1
    19     4     5    1
    20    21    22   ar
    21    22    23   ar
    22    23    18   ar
    23     5     1    1
    24    15     7    1
    25    14    10    1
    26     4     6    1
@<TRIPOS>MOLECULE
*****
 23 26 0 0 0
SMALL
GASTEIGER

@<TRIPOS>ATOM
      1 C         140.4933  141.3528  168.2094 C.3     1  UNL1        0.0353
      2 C         140.5152  142.5307  169.1378 C.3     1  UNL1        0.0225
      3 C         139.6416  142.2100  170.3142 C.3     1  UNL1        0.0689
      4 N         139.0798  140.8338  170.1129 N.3     1  UNL1       -0.2972
      5 C         139.6062  140.3039  168.8121 C.3     1  UNL1        0.0726
      6 H         138.0612  140.8768  170.0824 H       1  UNL1        0.1233
      7 C         140.6644  140.3501  167.1069 C.2     1  UNL1       -0.0387
      8 C         141.9928  139.6862  166.8963 C.2     1  UNL1       -0.0066
      9 C         142.1638  138.6836  165.7937 C.2     1  UNL1        0.0182
     10 C         141.0063  138.3449  164.9018 C.2     1  UNL1        0.0777
     11 N         140.8752  137.4033  163.7416 N.2     1  UNL1       -0.2442
     12 C         139.4657  137.4852  163.2352 C.2     1  UNL1        0.0985
     13 C         138.7256  138.4775  164.0824 C.2     1  UNL1        0.0182
     14 C         139.6779  139.0089  165.1125 C.2     1  UNL1        0.0011
     15 C         139.5069  140.0114  166.2150 C.3     1  UNL1        0.0499
     16 C         141.4161  142.1918  167.3762 C.3     1  UNL1        0.0315
     17 F         139.2214  145.5028  162.8794 F       1  UNL1       -0.2042
     18 C         139.7701  144.6750  164.0036 C.ar    1  UNL1        0.1401
     19 C         138.9819  144.5127  165.2695 C.ar    1  UNL1        0.0293
     20 C         139.5306  143.6850  166.3937 C.ar    1  UNL1       -0.0020
     21 C         140.8674  143.0196  166.2520 C.ar    1  UNL1       -0.0217
     22 C         141.6556  143.1819  164.9861 C.ar    1  UNL1       -0.0020
     23 C         141.1070  144.0096  163.8619 C.ar    1  UNL1        0.0293
@<TRIPOS>BOND
     1    17    18    1
     2    18    19   ar
     3    19    20   ar
     4    20    21   ar
     5    21    16    1
     6    16     1    1
     7     1     7    1
     8     7     8    2
     9     8     9    1
    10     9    10    2
    11    10    11    1
    12    11    12    2
    13    12    13    1
    14    13    14    2
    15    14    15    1
    16     1     2    1
    17     2     3    1
    18     3     4    1
    19     4     5    1
    20    21    22   ar
    21    22    23   ar
    22    23    18   ar
    23     5     1    1
    24    15     7    1
    25    14    10    1
    26     4     6    1
@<TRIPOS>MOLECULE
*****
 23 26 0 0 0
SMALL
GASTEIGER

@<TRIPOS>ATOM
      1 C         141.0848  141.2388  168.0491 C.3     1  UNL1        0.0353
      2 C         140.7147  140.1844  169.0498 C.3     1  UNL1        0.0225
      3 C         139.9761  140.8502  170.1728 C.3     1  UNL1        0.0689
      4 N         139.8899  142.3160  169.8664 N.3     1  UNL1       -0.2972
      5 C         140.5751  142.5562  168.5538 C.3     1  UNL1        0.0726
      6 H         140.3524  142.8511  170.6013 H       1  UNL1        0.1233
      7 C         141.5834  142.0535  166.8924 C.2     1  UNL1       -0.0387
      8 C         143.0417  142.0445  166.5420 C.2     1  UNL1       -0.0066
      9 C         143.5403  142.8592  165.3853 C.2     1  UNL1        0.0182
     10 C         142.5802  143.6827  164.5791 C.2     1  UNL1        0.0777
     11 N         142.7775  144.5795  163.3930 N.2     1  UNL1       -0.2442
     12 C         141.4410  145.1427  163.0103 C.2     1  UNL1        0.0985
     13 C         140.4176  144.5940  163.9600 C.2     1  UNL1        0.0182
     14 C         141.1218  143.6917  164.9295 C.2     1  UNL1        0.0011
     15 C         140.6233  142.8770  166.0862 C.3     1  UNL1        0.0499
     16 C         141.6988  140.0918  167.3026 C.3     1  UNL1        0.0315
     17 F         138.4821  137.1134  163.2059 F       1  UNL1       -0.2042
     18 C         139.2863  137.8580  164.2301 C.ar    1  UNL1        0.1401
     19 C         140.7839  137.7743  164.2136 C.ar    1  UNL1        0.0293
     20 C         141.5880  138.5189  165.2378 C.ar    1  UNL1       -0.0020
     21 C         140.8946  139.3472  166.2784 C.ar    1  UNL1       -0.0217
     22 C         139.3971  139.4310  166.2949 C.ar    1  UNL1       -0.0020
     23 C         138.5928  138.6864  165.2708 C.ar    1  UNL1        0.0293
@<TRIPOS>BOND
     1    17    18    1
     2    18    19   ar
     3    19    20   ar
     4    20    21   ar
     5    21    16    1
     6    16     1    1
     7     1     7    1
     8     7     8    2
     9     8     9    1
    10     9    10    2
    11    10    11    1
    12    11    12    2
    13    12    13    1
    14    13    14    2
    15    14    15    1
    16     1     2    1
    17     2     3    1
    18     3     4    1
    19     4     5    1
    20    21    22   ar
    21    22    23   ar
    22    23    18   ar
    23     5     1    1
    24    15     7    1
    25    14    10    1
    26     4     6    1
@<TRIPOS>MOLECULE
*****
 23 26 0 0 0
SMALL
GASTEIGER

@<TRIPOS>ATOM
      1 C         138.7598  139.1735  163.5807 C.3     1  UNL1        0.0353
      2 C         138.0581  139.2280  162.2561 C.3     1  UNL1        0.0225
      3 C         138.6258  138.1461  161.3860 C.3     1  UNL1        0.0689
      4 N         139.6784  137.4229  162.1729 N.3     1  UNL1       -0.2972
      5 C         139.7612  138.0578  163.5293 C.3     1  UNL1        0.0726
      6 H         140.5785  137.4996  161.6993 H       1  UNL1        0.1233
      7 C         139.2746  139.3604  164.9772 C.2     1  UNL1       -0.0387
      8 C         138.3200  139.3654  166.1341 C.2     1  UNL1       -0.0066
      9 C         138.8349  139.5523  167.5306 C.2     1  UNL1        0.0182
     10 C         140.3045  139.7341  167.7700 C.2     1  UNL1        0.0777
     11 N         141.0991  139.9381  169.0258 N.2     1  UNL1       -0.2442
     12 C         142.5449  140.0591  168.6448 C.2     1  UNL1        0.0985
     13 C         142.6438  139.9299  167.1537 C.2     1  UNL1        0.0182
     14 C         141.2591  139.7290  166.6130 C.2     1  UNL1        0.0011
     15 C         140.7442  139.5421  165.2166 C.3     1  UNL1        0.0499
     16 C         137.8661  140.3282  163.9241 C.3     1  UNL1        0.0315
     17 F         139.6502  145.9434  162.7896 F       1  UNL1       -0.2042
     18 C         139.2042  144.5396  163.0733 C.ar    1  UNL1        0.1401
     19 C         139.7622  143.3994  162.2741 C.ar    1  UNL1        0.0293
     20 C         139.3162  141.9956  162.5578 C.ar    1  UNL1       -0.0020
     21 C         138.3121  141.7320  163.6405 C.ar    1  UNL1       -0.0217
     22 C         137.7541  142.8721  164.4396 C.ar    1  UNL1       -0.0020
     23 C         138.2001  144.2760  164.1561 C.ar    1  UNL1        0.0293
@<TRIPOS>BOND
     1    17    18    1
     2    18    19   ar
     3    19    20   ar
     4    20    21   ar
     5    21    16    1
     6    16     1    1
     7     1     7    1
     8     7     8    2
     9     8     9    1
    10     9    10    2
    11    10    11    1
    12    11    12    2
    13    12    13    1
    14    13    14    2
    15    14    15    1
    16     1     2    1
    17     2     3    1
    18     3     4    1
    19     4     5    1
    20    21    22   ar
    21    22    23   ar
    22    23    18   ar
    23     5     1    1
    24    15     7    1
    25    14    10    1
    26     4     6    1
@<TRIPOS>MOLECULE
*****
 23 26 0 0 0
SMALL
GASTEIGER

@<TRIPOS>ATOM
      1 C         140.2308  139.8570  165.7743 C.3     1  UNL1        0.0353
      2 C         139.6773  139.4252  164.4488 C.3     1  UNL1        0.0225
      3 C         140.6067  138.3998  163.8702 C.3     1  UNL1        0.0689
      4 N         141.7346  138.1979  164.8381 N.3     1  UNL1       -0.2972
      5 C         141.5024  139.0984  166.0150 C.3     1  UNL1        0.0726
      6 H         142.6207  138.4338  164.3913 H       1  UNL1        0.1233
      7 C         140.5318  140.4743  167.1079 C.2     1  UNL1       -0.0387
      8 C         139.5170  140.4094  168.2106 C.2     1  UNL1       -0.0066
      9 C         139.8179  141.0267  169.5442 C.2     1  UNL1        0.0182
     10 C         141.1337  141.7089  169.7750 C.2     1  UNL1        0.0777
     11 N         141.7079  142.4024  170.9748 N.2     1  UNL1       -0.2442
     12 C         143.0775  142.8958  170.6135 C.2     1  UNL1        0.0985
     13 C         143.3499  142.5074  169.1906 C.2     1  UNL1        0.0182
     14 C         142.1485  141.7738  168.6723 C.2     1  UNL1        0.0011
     15 C         141.8475  141.1565  167.3388 C.3     1  UNL1        0.0499
     16 C         139.0223  140.7446  165.8125 C.3     1  UNL1        0.0315
     17 F         138.8096  145.6716  162.3950 F       1  UNL1       -0.2042
     18 C         138.8628  144.4399  163.2494 C.ar    1  UNL1        0.1401
     19 C         140.0895  144.1413  164.0594 C.ar    1  UNL1        0.0293
     20 C         140.1426  142.9095  164.9138 C.ar    1  UNL1       -0.0020
     21 C         138.9691  141.9763  164.9581 C.ar    1  UNL1       -0.0217
     22 C         137.7425  142.2749  164.1481 C.ar    1  UNL1       -0.0020
     23 C         137.6892  143.5066  163.2937 C.ar    1  UNL1        0.0293
@<TRIPOS>BOND
     1    17    18    1
     2    18    19   ar
     3    19    20   ar
     4    20    21   ar
     5    21    16    1
     6    16     1    1
     7     1     7    1
     8     7     8    2
     9     8     9    1
    10     9    10    2
    11    10    11    1
    12    11    12    2
    13    12    13    1
    14    13    14    2
    15    14    15    1
    16     1     2    1
    17     2     3    1
    18     3     4    1
    19     4     5    1
    20    21    22   ar
    21    22    23   ar
    22    23    18   ar
    23     5     1    1
    24    15     7    1
    25    14    10    1
    26     4     6    1
@<TRIPOS>MOLECULE
*****
 23 26 0 0 0
SMALL
GASTEIGER

@<TRIPOS>ATOM
      1 C         139.9746  141.1963  166.9610 C.3     1  UNL1        0.0353
      2 C         140.7278  141.8232  168.0966 C.3     1  UNL1        0.0225
      3 C         140.5125  140.9789  169.3176 C.3     1  UNL1        0.0689
      4 N         139.6264  139.8302  168.9366 N.3     1  UNL1       -0.2972
      5 C         139.2939  139.9645  167.4801 C.3     1  UNL1        0.0726
      6 H         138.7704  139.8547  169.4907 H       1  UNL1        0.1233
      7 C         139.3358  140.8099  165.6599 C.2     1  UNL1       -0.0387
      8 C         138.5060  141.8068  164.9066 C.2     1  UNL1       -0.0066
      9 C         137.8672  141.4204  163.6055 C.2     1  UNL1        0.0182
     10 C         138.0583  140.0371  163.0578 C.2     1  UNL1        0.0777
     11 N         137.5561  139.3735  161.8099 N.2     1  UNL1       -0.2442
     12 C         138.0756  137.9665  161.7920 C.2     1  UNL1        0.0985
     13 C         138.8989  137.7605  163.0288 C.2     1  UNL1        0.0182
     14 C         138.8882  139.0403  163.8112 C.2     1  UNL1        0.0011
     15 C         139.5270  139.4267  165.1122 C.3     1  UNL1        0.0499
     16 C         140.5217  142.3472  166.1698 C.3     1  UNL1        0.0315
     17 F         145.9981  141.9867  163.7449 F       1  UNL1       -0.2042
     18 C         144.6290  142.0769  164.3511 C.ar    1  UNL1        0.1401
     19 C         144.0413  140.8904  165.0561 C.ar    1  UNL1        0.0293
     20 C         142.6722  140.9806  165.6624 C.ar    1  UNL1       -0.0020
     21 C         141.8908  142.2571  165.5636 C.ar    1  UNL1       -0.0217
     22 C         142.4785  143.4435  164.8586 C.ar    1  UNL1       -0.0020
     23 C         143.8475  143.3535  164.2523 C.ar    1  UNL1        0.0293
@<TRIPOS>BOND
     1    17    18    1
     2    18    19   ar
     3    19    20   ar
     4    20    21   ar
     5    21    16    1
     6    16     1    1
     7     1     7    1
     8     7     8    2
     9     8     9    1
    10     9    10    2
    11    10    11    1
    12    11    12    2
    13    12    13    1
    14    13    14    2
    15    14    15    1
    16     1     2    1
    17     2     3    1
    18     3     4    1
    19     4     5    1
    20    21    22   ar
    21    22    23   ar
    22    23    18   ar
    23     5     1    1
    24    15     7    1
    25    14    10    1
    26     4     6    1
@<TRIPOS>MOLECULE
*****
 23 26 0 0 0
SMALL
GASTEIGER

@<TRIPOS>ATOM
      1 C         139.0019  140.2276  164.9424 C.3     1  UNL1        0.0353
      2 C         138.6998  139.3992  163.7290 C.3     1  UNL1        0.0225
      3 C         137.6823  140.1341  162.9076 C.3     1  UNL1        0.0689
      4 N         137.3555  141.4167  163.6135 N.3     1  UNL1       -0.2972
      5 C         138.1711  141.4745  164.8710 C.3     1  UNL1        0.0726
      6 H         136.3622  141.4418  163.8437 H       1  UNL1        0.1233
      7 C         139.4994  140.8213  166.2270 C.2     1  UNL1       -0.0387
      8 C         140.0679  142.2092  166.2411 C.2     1  UNL1       -0.0066
      9 C         140.5655  142.8030  167.5256 C.2     1  UNL1        0.0182
     10 C         140.4944  142.0086  168.7960 C.2     1  UNL1        0.0777
     11 N         140.9043  142.3274  170.2033 N.2     1  UNL1       -0.2442
     12 C         140.5891  141.1364  171.0589 C.2     1  UNL1        0.0985
     13 C         139.9844  140.0815  170.1805 C.2     1  UNL1        0.0182
     14 C         139.9259  140.6206  168.7819 C.2     1  UNL1        0.0011
     15 C         139.4284  140.0269  167.4974 C.3     1  UNL1        0.0499
     16 C         139.9367  139.1049  165.2824 C.3     1  UNL1        0.0315
     17 F         145.8121  139.6614  164.2005 F       1  UNL1       -0.2042
     18 C         144.3432  139.5222  164.4710 C.ar    1  UNL1        0.1401
     19 C         143.8699  138.7255  165.6504 C.ar    1  UNL1        0.0293
     20 C         142.4011  138.5863  165.9209 C.ar    1  UNL1       -0.0020
     21 C         141.4055  139.2440  165.0119 C.ar    1  UNL1       -0.0217
     22 C         141.8788  140.0408  163.8324 C.ar    1  UNL1       -0.0020
     23 C         143.3476  140.1799  163.5619 C.ar    1  UNL1        0.0293
@<TRIPOS>BOND
     1    17    18    1
     2    18    19   ar
     3    19    20   ar
     4    20    21   ar
     5    21    16    1
     6    16     1    1
     7     1     7    1
     8     7     8    2
     9     8     9    1
    10     9    10    2
    11    10    11    1
    12    11    12    2
    13    12    13    1
    14    13    14    2
    15    14    15    1
    16     1     2    1
    17     2     3    1
    18     3     4    1
    19     4     5    1
    20    21    22   ar
    21    22    23   ar
    22    23    18   ar
    23     5     1    1
    24    15     7    1
    25    14    10    1
    26     4     6    1
