@<TRIPOS>MOLECULE
*****
 27 29 0 0 0
SMALL
GASTEIGER

@<TRIPOS>ATOM
      1 N         143.4980  137.4791  170.1392 N.pl3   1  UNL1       -0.3375
      2 C         142.8075  138.7952  169.9364 C.ar    1  UNL1        0.1568
      3 N         141.8150  139.1131  168.8576 N.ar    1  UNL1       -0.2242
      4 C         141.3823  140.5389  169.0312 C.ar    1  UNL1        0.0967
      5 C         140.4218  141.3970  168.2626 C.ar    1  UNL1        0.0747
      6 C         140.1863  142.8184  168.6800 C.ar    1  UNL1        0.0458
      7 C         140.9115  143.3816  169.8662 C.ar    1  UNL1        0.1682
      8 O         140.6760  144.8030  170.2837 O.3     1  UNL1       -0.5029
      9 C         141.8721  142.5234  170.6349 C.ar    1  UNL1        0.1751
     10 O         142.5972  143.0866  171.8210 O.3     1  UNL1       -0.5025
     11 C         142.1075  141.1021  170.2174 C.ar    1  UNL1        0.0865
     12 S         142.9883  140.0244  170.7768 S.2     1  UNL1       -0.0488
     13 H         143.3125  136.7271  169.5315 H       1  UNL1        0.1442
     14 H         144.1368  137.3674  170.8799 H       1  UNL1        0.1442
     15 H         140.0760  145.3390  169.8035 H       1  UNL1        0.2923
     16 H         142.4501  143.9745  172.0818 H       1  UNL1        0.2923
     17 C         139.6967  140.8338  167.0764 C.2     1  UNL1        0.2477
     18 O         139.6466  141.6064  165.7917 O.2     1  UNL1       -0.2701
     19 N         139.0216  139.4978  167.1750 N.am    1  UNL1       -0.2969
     20 H         139.0545  138.9907  168.0182 H       1  UNL1        0.1501
     21 C         138.2965  138.9346  165.9888 C.3     1  UNL1        0.1166
     22 C         139.0677  138.4747  164.7873 C.ar    1  UNL1       -0.0026
     23 C         138.5665  138.7890  163.4089 C.ar    1  UNL1       -0.0026
     24 C         139.3377  138.3291  162.2074 C.ar    1  UNL1       -0.0003
     25 C         140.6102  137.5547  162.3843 C.ar    1  UNL1       -0.0000
     26 C         141.1114  137.2404  163.7627 C.ar    1  UNL1       -0.0003
     27 C         140.3401  137.7004  164.9642 C.ar    1  UNL1       -0.0026
@<TRIPOS>BOND
     1     1     2    1
     2     2     3   ar
     3     3     4   ar
     4     4     5   ar
     5     5    17    1
     6    17    18    2
     7    17    19   am
     8    19    21    1
     9    21    22    1
    10    22    23   ar
    11    23    24   ar
    12    24    25   ar
    13    25    26   ar
    14    26    27   ar
    15     5     6   ar
    16     6     7   ar
    17     7     8    1
    18     7     9   ar
    19     9    10    1
    20     9    11   ar
    21    11    12   ar
    22    12     2   ar
    23    11     4   ar
    24    27    22   ar
    25     1    13    1
    26     1    14    1
    27    19    20    1
    28     8    15    1
    29    10    16    1
@<TRIPOS>MOLECULE
*****
 27 29 0 0 0
SMALL
GASTEIGER

@<TRIPOS>ATOM
      1 N         144.7075  142.8916  170.2692 N.pl3   1  UNL1       -0.3375
      2 C         143.5081  142.2480  169.6389 C.ar    1  UNL1        0.1568
      3 N         143.1769  142.2431  168.1760 N.ar    1  UNL1       -0.2242
      4 C         141.8934  141.4883  167.9938 C.ar    1  UNL1        0.0967
      5 C         141.0858  141.1618  166.7728 C.ar    1  UNL1        0.0747
      6 C         139.8161  140.3736  166.9021 C.ar    1  UNL1        0.0458
      7 C         139.3541  139.9120  168.2524 C.ar    1  UNL1        0.1682
      8 O         138.0845  139.1238  168.3818 O.3     1  UNL1       -0.5029
      9 C         140.1618  140.2386  169.4735 C.ar    1  UNL1        0.1751
     10 O         139.6999  139.7770  170.8239 O.3     1  UNL1       -0.5025
     11 C         141.4315  141.0267  169.3442 C.ar    1  UNL1        0.0865
     12 S         142.4294  141.4962  170.3609 S.2     1  UNL1       -0.0488
     13 H         145.3637  143.3652  169.7085 H       1  UNL1        0.1442
     14 H         144.8385  142.8404  171.2436 H       1  UNL1        0.1442
     15 H         137.5799  138.9198  167.6190 H       1  UNL1        0.2923
     16 H         138.9067  139.2846  170.9047 H       1  UNL1        0.2923
     17 C         141.5477  141.6233  165.4224 C.2     1  UNL1        0.2477
     18 O         141.2549  140.7957  164.2062 O.2     1  UNL1       -0.2701
     19 N         142.3026  142.9127  165.2882 N.am    1  UNL1       -0.2969
     20 H         142.4948  143.4559  166.0865 H       1  UNL1        0.1501
     21 C         142.7646  143.3743  163.9379 C.3     1  UNL1        0.1166
     22 C         141.8269  144.1272  163.0414 C.ar    1  UNL1       -0.0026
     23 C         142.1520  144.2941  161.5866 C.ar    1  UNL1       -0.0026
     24 C         141.2143  145.0471  160.6901 C.ar    1  UNL1       -0.0003
     25 C         139.9515  145.6333  161.2484 C.ar    1  UNL1       -0.0000
     26 C         139.6264  145.4664  162.7032 C.ar    1  UNL1       -0.0003
     27 C         140.5641  144.7134  163.5997 C.ar    1  UNL1       -0.0026
@<TRIPOS>BOND
     1     1     2    1
     2     2     3   ar
     3     3     4   ar
     4     4     5   ar
     5     5    17    1
     6    17    18    2
     7    17    19   am
     8    19    21    1
     9    21    22    1
    10    22    23   ar
    11    23    24   ar
    12    24    25   ar
    13    25    26   ar
    14    26    27   ar
    15     5     6   ar
    16     6     7   ar
    17     7     8    1
    18     7     9   ar
    19     9    10    1
    20     9    11   ar
    21    11    12   ar
    22    12     2   ar
    23    11     4   ar
    24    27    22   ar
    25     1    13    1
    26     1    14    1
    27    19    20    1
    28     8    15    1
    29    10    16    1
@<TRIPOS>MOLECULE
*****
 27 29 0 0 0
SMALL
GASTEIGER

@<TRIPOS>ATOM
      1 N         144.0408  142.1440  165.2066 N.pl3   1  UNL1       -0.3375
      2 C         143.1623  141.9471  166.4064 C.ar    1  UNL1        0.1568
      3 N         141.8999  141.1383  166.4515 N.ar    1  UNL1       -0.2242
      4 C         141.3492  141.2158  167.8447 C.ar    1  UNL1        0.0967
      5 C         140.1273  140.6169  168.4757 C.ar    1  UNL1        0.0747
      6 C         139.8275  140.8747  169.9227 C.ar    1  UNL1        0.0458
      7 C         140.7496  141.7315  170.7385 C.ar    1  UNL1        0.1682
      8 O         140.4499  141.9893  172.1855 O.3     1  UNL1       -0.5029
      9 C         141.9716  142.3304  170.1074 C.ar    1  UNL1        0.1751
     10 O         142.8937  143.1872  170.9233 O.3     1  UNL1       -0.5025
     11 C         142.2714  142.0725  168.6605 C.ar    1  UNL1        0.0865
     12 S         143.3919  142.5245  167.7716 S.2     1  UNL1       -0.0488
     13 H         143.8050  141.7217  164.3492 H       1  UNL1        0.1442
     14 H         144.8533  142.6956  165.2767 H       1  UNL1        0.1442
     15 H         139.6866  141.6152  172.5797 H       1  UNL1        0.2923
     16 H         142.7064  143.3482  171.8272 H       1  UNL1        0.2923
     17 C         139.2052  139.7601  167.6598 C.2     1  UNL1        0.2477
     18 O         138.0632  139.0468  168.3207 O.2     1  UNL1       -0.2701
     19 N         139.4252  139.6166  166.1829 N.am    1  UNL1       -0.2969
     20 H         140.1748  140.0848  165.7491 H       1  UNL1        0.1501
     21 C         138.5031  138.7599  165.3671 C.3     1  UNL1        0.1166
     22 C         138.4301  138.9415  163.8799 C.ar    1  UNL1       -0.0026
     23 C         137.8659  140.2073  163.3058 C.ar    1  UNL1       -0.0026
     24 C         137.7929  140.3889  161.8186 C.ar    1  UNL1       -0.0003
     25 C         138.2841  139.3048  160.9056 C.ar    1  UNL1       -0.0000
     26 C         138.8482  138.0391  161.4797 C.ar    1  UNL1       -0.0003
     27 C         138.9212  137.8575  162.9670 C.ar    1  UNL1       -0.0026
@<TRIPOS>BOND
     1     1     2    1
     2     2     3   ar
     3     3     4   ar
     4     4     5   ar
     5     5    17    1
     6    17    18    2
     7    17    19   am
     8    19    21    1
     9    21    22    1
    10    22    23   ar
    11    23    24   ar
    12    24    25   ar
    13    25    26   ar
    14    26    27   ar
    15     5     6   ar
    16     6     7   ar
    17     7     8    1
    18     7     9   ar
    19     9    10    1
    20     9    11   ar
    21    11    12   ar
    22    12     2   ar
    23    11     4   ar
    24    27    22   ar
    25     1    13    1
    26     1    14    1
    27    19    20    1
    28     8    15    1
    29    10    16    1
@<TRIPOS>MOLECULE
*****
 27 29 0 0 0
SMALL
GASTEIGER

@<TRIPOS>ATOM
      1 N         138.0530  138.8821  167.6228 N.pl3   1  UNL1       -0.3375
      2 C         139.1753  139.7576  168.0961 C.ar    1  UNL1        0.1568
      3 N         140.3819  140.1531  167.2976 N.ar    1  UNL1       -0.2242
      4 C         141.2404  141.0312  168.1590 C.ar    1  UNL1        0.0967
      5 C         142.5504  141.7157  167.9034 C.ar    1  UNL1        0.0747
      6 C         143.1843  142.5476  168.9787 C.ar    1  UNL1        0.0458
      7 C         142.5083  142.6948  170.3096 C.ar    1  UNL1        0.1682
      8 O         143.1422  143.5265  171.3849 O.3     1  UNL1       -0.5029
      9 C         141.1982  142.0101  170.5652 C.ar    1  UNL1        0.1751
     10 O         140.5222  142.1573  171.8961 O.3     1  UNL1       -0.5025
     11 C         140.5644  141.1784  169.4899 C.ar    1  UNL1        0.0865
     12 S         139.2881  140.3913  169.4510 S.2     1  UNL1       -0.0488
     13 H         138.0690  138.5111  166.7110 H       1  UNL1        0.1442
     14 H         137.3004  138.6785  168.2240 H       1  UNL1        0.1442
     15 H         143.9605  143.9541  171.2253 H       1  UNL1        0.2923
     16 H         140.9182  142.6769  172.5678 H       1  UNL1        0.2923
     17 C         143.2264  141.5685  166.5725 C.2     1  UNL1        0.2477
     18 O         143.7616  142.7782  165.8653 O.2     1  UNL1       -0.2701
     19 N         143.3673  140.2116  165.9488 N.am    1  UNL1       -0.2969
     20 H         143.0160  139.4176  166.4130 H       1  UNL1        0.1501
     21 C         144.0434  140.0644  164.6180 C.3     1  UNL1        0.1166
     22 C         143.3846  139.2758  163.5252 C.ar    1  UNL1       -0.0026
     23 C         143.9712  139.2721  162.1447 C.ar    1  UNL1       -0.0026
     24 C         143.3124  138.4836  161.0520 C.ar    1  UNL1       -0.0003
     25 C         142.0669  137.6986  161.3397 C.ar    1  UNL1       -0.0000
     26 C         141.4803  137.7023  162.7203 C.ar    1  UNL1       -0.0003
     27 C         142.1392  138.4909  163.8130 C.ar    1  UNL1       -0.0026
@<TRIPOS>BOND
     1     1     2    1
     2     2     3   ar
     3     3     4   ar
     4     4     5   ar
     5     5    17    1
     6    17    18    2
     7    17    19   am
     8    19    21    1
     9    21    22    1
    10    22    23   ar
    11    23    24   ar
    12    24    25   ar
    13    25    26   ar
    14    26    27   ar
    15     5     6   ar
    16     6     7   ar
    17     7     8    1
    18     7     9   ar
    19     9    10    1
    20     9    11   ar
    21    11    12   ar
    22    12     2   ar
    23    11     4   ar
    24    27    22   ar
    25     1    13    1
    26     1    14    1
    27    19    20    1
    28     8    15    1
    29    10    16    1
@<TRIPOS>MOLECULE
*****
 27 29 0 0 0
SMALL
GASTEIGER

@<TRIPOS>ATOM
      1 N         145.1103  141.2476  162.6250 N.pl3   1  UNL1       -0.3375
      2 C         143.8781  142.1026  162.6456 C.ar    1  UNL1        0.1568
      3 N         142.7834  142.0470  163.6696 N.ar    1  UNL1       -0.2242
      4 C         141.7529  143.0734  163.3028 C.ar    1  UNL1        0.0967
      5 C         140.4568  143.4689  163.9461 C.ar    1  UNL1        0.0747
      6 C         139.6185  144.5545  163.3386 C.ar    1  UNL1        0.0458
      7 C         140.0764  145.2445  162.0879 C.ar    1  UNL1        0.1682
      8 O         139.2382  146.3300  161.4805 O.3     1  UNL1       -0.5029
      9 C         141.3725  144.8490  161.4447 C.ar    1  UNL1        0.1751
     10 O         141.8303  145.5390  160.1940 O.3     1  UNL1       -0.5025
     11 C         142.2107  143.7635  162.0521 C.ar    1  UNL1        0.0865
     12 S         143.5241  143.1635  161.6460 S.2     1  UNL1       -0.0488
     13 H         145.2545  140.5748  163.3291 H       1  UNL1        0.1442
     14 H         145.7749  141.3592  161.9073 H       1  UNL1        0.1442
     15 H         138.4285  146.5771  161.8823 H       1  UNL1        0.2923
     16 H         141.3067  146.2171  159.8146 H       1  UNL1        0.2923
     17 C         139.9990  142.7789  165.1968 C.2     1  UNL1        0.2477
     18 O         139.7332  143.5764  166.4390 O.2     1  UNL1       -0.2701
     19 N         139.8069  141.2912  165.2052 N.am    1  UNL1       -0.2969
     20 H         139.9814  140.7677  164.3898 H       1  UNL1        0.1501
     21 C         139.3491  140.6011  166.4558 C.3     1  UNL1        0.1166
     22 C         140.3510  140.1795  167.4895 C.ar    1  UNL1       -0.0026
     23 C         141.7309  139.7658  167.0715 C.ar    1  UNL1       -0.0026
     24 C         142.7328  139.3442  168.1052 C.ar    1  UNL1       -0.0003
     25 C         142.3548  139.3361  169.5568 C.ar    1  UNL1       -0.0000
     26 C         140.9748  139.7498  169.9747 C.ar    1  UNL1       -0.0003
     27 C         139.9729  140.1714  168.9410 C.ar    1  UNL1       -0.0026
@<TRIPOS>BOND
     1     1     2    1
     2     2     3   ar
     3     3     4   ar
     4     4     5   ar
     5     5    17    1
     6    17    18    2
     7    17    19   am
     8    19    21    1
     9    21    22    1
    10    22    23   ar
    11    23    24   ar
    12    24    25   ar
    13    25    26   ar
    14    26    27   ar
    15     5     6   ar
    16     6     7   ar
    17     7     8    1
    18     7     9   ar
    19     9    10    1
    20     9    11   ar
    21    11    12   ar
    22    12     2   ar
    23    11     4   ar
    24    27    22   ar
    25     1    13    1
    26     1    14    1
    27    19    20    1
    28     8    15    1
    29    10    16    1
@<TRIPOS>MOLECULE
*****
 27 29 0 0 0
SMALL
GASTEIGER

@<TRIPOS>ATOM
      1 N         137.7554  139.4174  169.6315 N.pl3   1  UNL1       -0.3375
      2 C         139.0770  140.1117  169.4851 C.ar    1  UNL1        0.1568
      3 N         139.8270  140.3186  168.2026 N.ar    1  UNL1       -0.2242
      4 C         141.0941  141.0558  168.5203 C.ar    1  UNL1        0.0967
      5 C         142.2220  141.5327  167.6541 C.ar    1  UNL1        0.0747
      6 C         143.3831  142.2584  168.2667 C.ar    1  UNL1        0.0458
      7 C         143.4162  142.5072  169.7456 C.ar    1  UNL1        0.1682
      8 O         144.5772  143.2329  170.3582 O.3     1  UNL1       -0.5029
      9 C         142.2882  142.0303  170.6118 C.ar    1  UNL1        0.1751
     10 O         142.3213  142.2791  172.0907 O.3     1  UNL1       -0.5025
     11 C         141.1272  141.3046  169.9992 C.ar    1  UNL1        0.0865
     12 S         139.8806  140.7211  170.5954 S.2     1  UNL1       -0.0488
     13 H         137.3029  139.0481  168.8390 H       1  UNL1        0.1442
     14 H         137.3406  139.3309  170.5201 H       1  UNL1        0.1442
     15 H         145.2818  143.5308  169.8171 H       1  UNL1        0.2923
     16 H         143.0466  142.7324  172.4734 H       1  UNL1        0.2923
     17 C         142.1888  141.2839  166.1753 C.2     1  UNL1        0.2477
     18 O         143.3976  140.7305  165.4806 O.2     1  UNL1       -0.2701
     19 N         140.9469  141.5886  165.3911 N.am    1  UNL1       -0.2969
     20 H         140.1535  141.9518  165.8471 H       1  UNL1        0.1501
     21 C         140.9138  141.3398  163.9123 C.3     1  UNL1        0.1166
     22 C         140.0729  140.2285  163.3573 C.ar    1  UNL1       -0.0026
     23 C         140.5417  138.8077  163.4647 C.ar    1  UNL1       -0.0026
     24 C         139.7008  137.6965  162.9098 C.ar    1  UNL1       -0.0003
     25 C         138.3910  138.0060  162.2474 C.ar    1  UNL1       -0.0000
     26 C         137.9222  139.4268  162.1400 C.ar    1  UNL1       -0.0003
     27 C         138.7632  140.5381  162.6949 C.ar    1  UNL1       -0.0026
@<TRIPOS>BOND
     1     1     2    1
     2     2     3   ar
     3     3     4   ar
     4     4     5   ar
     5     5    17    1
     6    17    18    2
     7    17    19   am
     8    19    21    1
     9    21    22    1
    10    22    23   ar
    11    23    24   ar
    12    24    25   ar
    13    25    26   ar
    14    26    27   ar
    15     5     6   ar
    16     6     7   ar
    17     7     8    1
    18     7     9   ar
    19     9    10    1
    20     9    11   ar
    21    11    12   ar
    22    12     2   ar
    23    11     4   ar
    24    27    22   ar
    25     1    13    1
    26     1    14    1
    27    19    20    1
    28     8    15    1
    29    10    16    1
@<TRIPOS>MOLECULE
*****
 27 29 0 0 0
SMALL
GASTEIGER

@<TRIPOS>ATOM
      1 N         143.3465  137.5450  170.3194 N.pl3   1  UNL1       -0.3375
      2 C         142.6658  138.8553  170.0550 C.ar    1  UNL1        0.1568
      3 N         142.4574  139.4849  168.7096 N.ar    1  UNL1       -0.2242
      4 C         141.7368  140.7847  168.9126 C.ar    1  UNL1        0.0967
      5 C         141.2658  141.8325  167.9482 C.ar    1  UNL1        0.0747
      6 C         140.5578  143.0541  168.4547 C.ar    1  UNL1        0.0458
      7 C         140.3208  143.2279  169.9256 C.ar    1  UNL1        0.1682
      8 O         139.6129  144.4494  170.4321 O.3     1  UNL1       -0.5029
      9 C         140.7919  142.1800  170.8901 C.ar    1  UNL1        0.1751
     10 O         140.5549  142.3537  172.3610 O.3     1  UNL1       -0.5025
     11 C         141.4998  140.9584  170.3836 C.ar    1  UNL1        0.0865
     12 S         142.0740  139.7660  171.0896 S.2     1  UNL1       -0.0488
     13 H         143.7046  137.0163  169.5701 H       1  UNL1        0.1442
     14 H         143.4352  137.2138  171.2423 H       1  UNL1        0.1442
     15 H         139.3186  145.1039  169.8296 H       1  UNL1        0.2923
     16 H         140.1127  143.1168  172.6774 H       1  UNL1        0.2923
     17 C         141.5027  141.6588  166.4773 C.2     1  UNL1        0.2477
     18 O         141.5197  142.8560  165.5738 O.2     1  UNL1       -0.2701
     19 N         141.7227  140.2877  165.9098 N.am    1  UNL1       -0.2969
     20 H         141.7116  139.5019  166.5028 H       1  UNL1        0.1501
     21 C         141.9597  140.1140  164.4389 C.3     1  UNL1        0.1166
     22 C         143.1336  140.7800  163.7845 C.ar    1  UNL1       -0.0026
     23 C         142.9431  141.5603  162.5177 C.ar    1  UNL1       -0.0026
     24 C         144.1170  142.2264  161.8633 C.ar    1  UNL1       -0.0003
     25 C         145.4816  142.1121  162.4757 C.ar    1  UNL1       -0.0000
     26 C         145.6721  141.3317  163.7425 C.ar    1  UNL1       -0.0003
     27 C         144.4981  140.6657  164.3969 C.ar    1  UNL1       -0.0026
@<TRIPOS>BOND
     1     1     2    1
     2     2     3   ar
     3     3     4   ar
     4     4     5   ar
     5     5    17    1
     6    17    18    2
     7    17    19   am
     8    19    21    1
     9    21    22    1
    10    22    23   ar
    11    23    24   ar
    12    24    25   ar
    13    25    26   ar
    14    26    27   ar
    15     5     6   ar
    16     6     7   ar
    17     7     8    1
    18     7     9   ar
    19     9    10    1
    20     9    11   ar
    21    11    12   ar
    22    12     2   ar
    23    11     4   ar
    24    27    22   ar
    25     1    13    1
    26     1    14    1
    27    19    20    1
    28     8    15    1
    29    10    16    1
@<TRIPOS>MOLECULE
*****
 27 29 0 0 0
SMALL
GASTEIGER

@<TRIPOS>ATOM
      1 N         143.9134  144.8514  162.5165 N.pl3   1  UNL1       -0.3375
      2 C         143.6956  143.3676  162.4877 C.ar    1  UNL1        0.1568
      3 N         143.0407  142.5515  163.5625 N.ar    1  UNL1       -0.2242
      4 C         143.0349  141.1188  163.1181 C.ar    1  UNL1        0.0967
      5 C         142.5207  139.8685  163.7679 C.ar    1  UNL1        0.0747
      6 C         142.6578  138.5487  163.0682 C.ar    1  UNL1        0.0458
      7 C         143.3091  138.4793  161.7188 C.ar    1  UNL1        0.1682
      8 O         143.4462  137.1596  161.0191 O.3     1  UNL1       -0.5029
      9 C         143.8233  139.7297  161.0690 C.ar    1  UNL1        0.1751
     10 O         144.4746  139.6603  159.7196 O.3     1  UNL1       -0.5025
     11 C         143.6862  141.0494  161.7687 C.ar    1  UNL1        0.0865
     12 S         144.0945  142.4392  161.3791 S.2     1  UNL1       -0.0488
     13 H         143.6146  145.3778  163.2929 H       1  UNL1        0.1442
     14 H         144.3550  145.2989  161.7589 H       1  UNL1        0.1442
     15 H         143.1249  136.3786  161.4250 H       1  UNL1        0.2923
     16 H         144.5602  138.8360  159.2825 H       1  UNL1        0.2923
     17 C         141.8694  139.9379  165.1173 C.2     1  UNL1        0.2477
     18 O         141.9669  138.7736  166.0579 O.2     1  UNL1       -0.2701
     19 N         141.1205  141.1717  165.5261 N.am    1  UNL1       -0.2969
     20 H         141.0565  141.9359  164.9087 H       1  UNL1        0.1501
     21 C         140.4692  141.2411  166.8756 C.3     1  UNL1        0.1166
     22 C         141.1754  141.9131  168.0155 C.ar    1  UNL1       -0.0026
     23 C         140.4660  142.9564  168.8269 C.ar    1  UNL1       -0.0026
     24 C         141.1723  143.6284  169.9668 C.ar    1  UNL1       -0.0003
     25 C         142.5880  143.2571  170.2956 C.ar    1  UNL1       -0.0000
     26 C         143.2973  142.2137  169.4843 C.ar    1  UNL1       -0.0003
     27 C         142.5910  141.5417  168.3442 C.ar    1  UNL1       -0.0026
@<TRIPOS>BOND
     1     1     2    1
     2     2     3   ar
     3     3     4   ar
     4     4     5   ar
     5     5    17    1
     6    17    18    2
     7    17    19   am
     8    19    21    1
     9    21    22    1
    10    22    23   ar
    11    23    24   ar
    12    24    25   ar
    13    25    26   ar
    14    26    27   ar
    15     5     6   ar
    16     6     7   ar
    17     7     8    1
    18     7     9   ar
    19     9    10    1
    20     9    11   ar
    21    11    12   ar
    22    12     2   ar
    23    11     4   ar
    24    27    22   ar
    25     1    13    1
    26     1    14    1
    27    19    20    1
    28     8    15    1
    29    10    16    1
@<TRIPOS>MOLECULE
*****
 27 29 0 0 0
SMALL
GASTEIGER

@<TRIPOS>ATOM
      1 N         143.4092  145.0957  162.6014 N.pl3   1  UNL1       -0.3375
      2 C         142.2371  144.1763  162.7770 C.ar    1  UNL1        0.1568
      3 N         142.0874  143.1323  163.8435 N.ar    1  UNL1       -0.2242
      4 C         140.7666  142.4503  163.6426 C.ar    1  UNL1        0.0967
      5 C         140.0848  141.3429  164.3901 C.ar    1  UNL1        0.0747
      6 C         138.7363  140.8579  163.9468 C.ar    1  UNL1        0.0458
      7 C         138.0696  141.4805  162.7560 C.ar    1  UNL1        0.1682
      8 O         136.7212  140.9956  162.3127 O.3     1  UNL1       -0.5029
      9 C         138.7515  142.5880  162.0085 C.ar    1  UNL1        0.1751
     10 O         138.0848  143.2106  160.8178 O.3     1  UNL1       -0.5025
     11 C         140.0999  143.0729  162.4518 C.ar    1  UNL1        0.0865
     12 S         141.0087  144.1396  161.9169 S.2     1  UNL1       -0.0488
     13 H         144.1728  145.0435  163.2206 H       1  UNL1        0.1442
     14 H         143.4149  145.7512  161.8669 H       1  UNL1        0.1442
     15 H         136.2953  140.3038  162.7796 H       1  UNL1        0.2923
     16 H         137.2424  142.9077  160.5408 H       1  UNL1        0.2923
     17 C         140.7515  140.7203  165.5809 C.2     1  UNL1        0.2477
     18 O         139.9732  139.8133  166.4872 O.2     1  UNL1       -0.2701
     19 N         142.1966  141.0048  165.8653 N.am    1  UNL1       -0.2969
     20 H         142.7075  141.6001  165.2704 H       1  UNL1        0.1501
     21 C         142.8633  140.3822  167.0561 C.3     1  UNL1        0.1166
     22 C         142.5955  140.9184  168.4311 C.ar    1  UNL1       -0.0026
     23 C         143.0674  142.2921  168.8055 C.ar    1  UNL1       -0.0026
     24 C         142.7996  142.8283  170.1805 C.ar    1  UNL1       -0.0003
     25 C         142.0598  141.9907  171.1812 C.ar    1  UNL1       -0.0000
     26 C         141.5879  140.6170  170.8068 C.ar    1  UNL1       -0.0003
     27 C         141.8558  140.0808  169.4317 C.ar    1  UNL1       -0.0026
@<TRIPOS>BOND
     1     1     2    1
     2     2     3   ar
     3     3     4   ar
     4     4     5   ar
     5     5    17    1
     6    17    18    2
     7    17    19   am
     8    19    21    1
     9    21    22    1
    10    22    23   ar
    11    23    24   ar
    12    24    25   ar
    13    25    26   ar
    14    26    27   ar
    15     5     6   ar
    16     6     7   ar
    17     7     8    1
    18     7     9   ar
    19     9    10    1
    20     9    11   ar
    21    11    12   ar
    22    12     2   ar
    23    11     4   ar
    24    27    22   ar
    25     1    13    1
    26     1    14    1
    27    19    20    1
    28     8    15    1
    29    10    16    1
