@<TRIPOS>MOLECULE
*****
 28 31 0 0 0
SMALL
GASTEIGER

@<TRIPOS>ATOM
      1 C         140.3457  141.6615  169.7484 C.ar    1  UNL1        0.0784
      2 C         139.0783  140.9753  170.1644 C.ar    1  UNL1        0.1070
      3 N         138.4651  139.9315  169.2789 N.ar    1  UNL1       -0.2100
      4 C         139.1191  139.5737  167.9772 C.ar    1  UNL1        0.2252
      5 C         140.3865  140.2598  167.5612 C.ar    1  UNL1        0.0598
      6 C         141.2519  140.1175  166.3444 C.ar    1  UNL1        0.0116
      7 C         142.4001  141.0734  166.4779 C.ar    1  UNL1        0.0296
      8 S         142.2443  141.8065  167.7772 S.2     1  UNL1       -0.0866
      9 C         140.9997  141.3037  168.4467 C.ar    1  UNL1        0.0398
     10 C         143.5095  141.2630  165.4862 C.ar    1  UNL1        0.0060
     11 C         144.0869  140.0776  164.7711 C.ar    1  UNL1        0.0005
     12 C         145.1963  140.2672  163.7794 C.ar    1  UNL1        0.0000
     13 C         145.7281  141.6422  163.5028 C.ar    1  UNL1        0.0000
     14 C         145.1507  142.8276  164.2178 C.ar    1  UNL1        0.0000
     15 C         144.0413  142.6379  165.2096 C.ar    1  UNL1        0.0005
     16 N         140.8533  144.1560  170.2675 N.am    1  UNL1       -0.3253
     17 C         140.9589  142.7053  170.6339 C.2     1  UNL1        0.2448
     18 O         141.6779  142.2985  171.8860 O.2     1  UNL1       -0.2703
     19 H         141.2558  144.8412  170.8487 H       1  UNL1        0.1453
     20 H         140.3814  144.4230  169.4457 H       1  UNL1        0.1453
     21 O         138.5058  138.5298  167.0917 O.3     1  UNL1       -0.4625
     22 C         138.4706  138.7330  165.6060 C.3     1  UNL1        0.1832
     23 C         138.9383  137.6423  164.6886 C.3     1  UNL1        0.0465
     24 C         138.9032  137.8455  163.2028 C.3     1  UNL1        0.0208
     25 C         138.4004  139.1394  162.6345 C.3     1  UNL1        0.0688
     26 N         137.9327  140.2301  163.5519 N.3     1  UNL1       -0.2945
     27 C         137.9678  140.0269  165.0377 C.3     1  UNL1        0.1127
     28 H         136.9630  140.4273  163.3045 H       1  UNL1        0.1234
@<TRIPOS>BOND
     1    16    17   am
     2    17    18    2
     3    17     1    1
     4     1     2   ar
     5     2     3   ar
     6     3     4   ar
     7     4    21    1
     8    22    21    1
     9    22    23    1
    10    23    24    1
    11    24    25    1
    12    25    26    1
    13    26    27    1
    14     4     5   ar
    15     5     6   ar
    16     6     7   ar
    17     7    10    1
    18    10    11   ar
    19    11    12   ar
    20    12    13   ar
    21    13    14   ar
    22    14    15   ar
    23     7     8   ar
    24     8     9   ar
    25     9     1   ar
    26    27    22    1
    27     9     5   ar
    28    15    10   ar
    29    16    19    1
    30    16    20    1
    31    26    28    1
@<TRIPOS>MOLECULE
*****
 28 31 0 0 0
SMALL
GASTEIGER

@<TRIPOS>ATOM
      1 C         139.7128  141.0109  169.4464 C.ar    1  UNL1        0.0784
      2 C         138.7177  139.9034  169.6283 C.ar    1  UNL1        0.1070
      3 N         138.1633  139.1893  168.4314 N.ar    1  UNL1       -0.2100
      4 C         138.6039  139.5828  167.0525 C.ar    1  UNL1        0.2252
      5 C         139.5990  140.6904  166.8707 C.ar    1  UNL1        0.0598
      6 C         140.2159  141.2939  165.6439 C.ar    1  UNL1        0.0116
      7 C         141.1517  142.3810  166.0826 C.ar    1  UNL1        0.0296
      8 S         141.1131  142.4493  167.5806 S.2     1  UNL1       -0.0866
      9 C         140.1535  141.4044  168.0677 C.ar    1  UNL1        0.0398
     10 C         141.9807  143.2476  165.1816 C.ar    1  UNL1        0.0060
     11 C         143.4690  143.0681  165.1295 C.ar    1  UNL1        0.0005
     12 C         144.2978  143.9348  164.2285 C.ar    1  UNL1        0.0000
     13 C         143.6384  144.9810  163.3796 C.ar    1  UNL1        0.0000
     14 C         142.1502  145.1605  163.4317 C.ar    1  UNL1        0.0000
     15 C         141.3213  144.2938  164.3327 C.ar    1  UNL1        0.0005
     16 N         139.6391  143.0042  171.1112 N.am    1  UNL1       -0.3253
     17 C         140.2673  141.7250  170.6434 C.2     1  UNL1        0.2448
     18 O         141.4502  141.1598  171.3726 O.2     1  UNL1       -0.2703
     19 H         140.0030  143.4729  171.8968 H       1  UNL1        0.1453
     20 H         138.8628  143.3752  170.6326 H       1  UNL1        0.1453
     21 O         138.0493  138.8687  165.8556 O.3     1  UNL1       -0.4625
     22 C         138.9661  138.4313  164.7519 C.3     1  UNL1        0.1832
     23 C         140.1644  137.5847  165.0636 C.3     1  UNL1        0.0465
     24 C         141.0812  137.1473  163.9599 C.3     1  UNL1        0.0208
     25 C         140.7997  137.5565  162.5446 C.3     1  UNL1        0.0688
     26 N         139.6013  138.4031  162.2329 N.3     1  UNL1       -0.2945
     27 C         138.6845  138.8405  163.3366 C.3     1  UNL1        0.1127
     28 H         139.0331  137.8763  161.5695 H       1  UNL1        0.1234
@<TRIPOS>BOND
     1    16    17   am
     2    17    18    2
     3    17     1    1
     4     1     2   ar
     5     2     3   ar
     6     3     4   ar
     7     4    21    1
     8    22    21    1
     9    22    23    1
    10    23    24    1
    11    24    25    1
    12    25    26    1
    13    26    27    1
    14     4     5   ar
    15     5     6   ar
    16     6     7   ar
    17     7    10    1
    18    10    11   ar
    19    11    12   ar
    20    12    13   ar
    21    13    14   ar
    22    14    15   ar
    23     7     8   ar
    24     8     9   ar
    25     9     1   ar
    26    27    22    1
    27     9     5   ar
    28    15    10   ar
    29    16    19    1
    30    16    20    1
    31    26    28    1
@<TRIPOS>MOLECULE
*****
 28 31 0 0 0
SMALL
GASTEIGER

@<TRIPOS>ATOM
      1 C         141.4304  140.8464  169.5299 C.ar    1  UNL1        0.0784
      2 C         142.2010  139.6077  169.8788 C.ar    1  UNL1        0.1070
      3 N         142.9201  138.8447  168.8061 N.ar    1  UNL1       -0.2100
      4 C         142.8686  139.3205  167.3844 C.ar    1  UNL1        0.2252
      5 C         142.0979  140.5592  167.0356 C.ar    1  UNL1        0.0598
      6 C         141.8687  141.2647  165.7319 C.ar    1  UNL1        0.0116
      7 C         141.0079  142.4638  165.9989 C.ar    1  UNL1        0.0296
      8 S         140.7051  142.4993  167.4676 S.2     1  UNL1       -0.0866
      9 C         141.3788  141.3221  168.1083 C.ar    1  UNL1        0.0398
     10 C         140.5332  143.4536  164.9768 C.ar    1  UNL1        0.0060
     11 C         141.5264  144.2824  164.2174 C.ar    1  UNL1        0.0005
     12 C         141.0516  145.2722  163.1952 C.ar    1  UNL1        0.0000
     13 C         139.5837  145.4333  162.9324 C.ar    1  UNL1        0.0000
     14 C         138.5904  144.6046  163.6917 C.ar    1  UNL1        0.0000
     15 C         139.0652  143.6148  164.7139 C.ar    1  UNL1        0.0005
     16 N         139.2200  141.7598  170.5447 N.am    1  UNL1       -0.3253
     17 C         140.7113  141.6093  170.6027 C.2     1  UNL1        0.2448
     18 O         141.4835  142.2218  171.7335 O.2     1  UNL1       -0.2703
     19 H         138.7480  142.2605  171.2488 H       1  UNL1        0.1453
     20 H         138.7131  141.3578  169.8026 H       1  UNL1        0.1453
     21 O         143.5877  138.5574  166.3117 O.3     1  UNL1       -0.4625
     22 C         142.9085  138.2830  165.0028 C.3     1  UNL1        0.1832
     23 C         141.6033  137.5443  164.9755 C.3     1  UNL1        0.0465
     24 C         140.9240  137.2699  163.6667 C.3     1  UNL1        0.0208
     25 C         141.5499  137.7342  162.3850 C.3     1  UNL1        0.0688
     26 N         142.8551  138.4729  162.4122 N.3     1  UNL1       -0.2945
     27 C         143.5344  138.7474  163.7211 C.3     1  UNL1        0.1127
     28 H         142.6907  139.3775  161.9704 H       1  UNL1        0.1234
@<TRIPOS>BOND
     1    16    17   am
     2    17    18    2
     3    17     1    1
     4     1     2   ar
     5     2     3   ar
     6     3     4   ar
     7     4    21    1
     8    22    21    1
     9    22    23    1
    10    23    24    1
    11    24    25    1
    12    25    26    1
    13    26    27    1
    14     4     5   ar
    15     5     6   ar
    16     6     7   ar
    17     7    10    1
    18    10    11   ar
    19    11    12   ar
    20    12    13   ar
    21    13    14   ar
    22    14    15   ar
    23     7     8   ar
    24     8     9   ar
    25     9     1   ar
    26    27    22    1
    27     9     5   ar
    28    15    10   ar
    29    16    19    1
    30    16    20    1
    31    26    28    1
@<TRIPOS>MOLECULE
*****
 28 31 0 0 0
SMALL
GASTEIGER

@<TRIPOS>ATOM
      1 C         138.9682  139.0991  164.3104 C.ar    1  UNL1        0.0784
      2 C         138.1630  139.3611  163.0723 C.ar    1  UNL1        0.1070
      3 N         137.8426  140.7701  162.6702 N.ar    1  UNL1       -0.2100
      4 C         138.3274  141.9174  163.5062 C.ar    1  UNL1        0.2252
      5 C         139.1326  141.6554  164.7443 C.ar    1  UNL1        0.0598
      6 C         139.7420  142.5770  165.7589 C.ar    1  UNL1        0.0116
      7 C         140.4389  141.7374  166.7881 C.ar    1  UNL1        0.0296
      8 S         140.2604  140.2970  166.4096 S.2     1  UNL1       -0.0866
      9 C         139.4530  140.2463  165.1465 C.ar    1  UNL1        0.0398
     10 C         141.1838  142.2485  167.9857 C.ar    1  UNL1        0.0060
     11 C         142.6195  141.8677  168.1947 C.ar    1  UNL1        0.0005
     12 C         143.3642  142.3788  169.3922 C.ar    1  UNL1        0.0000
     13 C         142.6733  143.2707  170.3808 C.ar    1  UNL1        0.0000
     14 C         141.2376  143.6515  170.1717 C.ar    1  UNL1        0.0000
     15 C         140.4929  143.1404  168.9742 C.ar    1  UNL1        0.0005
     16 N         140.5212  137.0203  164.1813 N.am    1  UNL1       -0.3253
     17 C         139.2886  137.6900  164.7126 C.2     1  UNL1        0.2448
     18 O         138.3763  136.9505  165.6460 O.2     1  UNL1       -0.2703
     19 H         140.7314  136.0954  164.4453 H       1  UNL1        0.1453
     20 H         141.1199  137.5056  163.5687 H       1  UNL1        0.1453
     21 O         138.0070  143.3265  163.1040 O.3     1  UNL1       -0.4625
     22 C         138.9178  144.0650  162.1686 C.3     1  UNL1        0.1832
     23 C         139.3247  143.4387  160.8678 C.3     1  UNL1        0.0465
     24 C         140.2355  144.1771  159.9323 C.3     1  UNL1        0.0208
     25 C         140.7393  145.5419  160.2976 C.3     1  UNL1        0.0688
     26 N         140.3324  146.1683  161.5984 N.3     1  UNL1       -0.2945
     27 C         139.4216  145.4298  162.5339 C.3     1  UNL1        0.1127
     28 H         139.8692  147.0477  161.3695 H       1  UNL1        0.1234
@<TRIPOS>BOND
     1    16    17   am
     2    17    18    2
     3    17     1    1
     4     1     2   ar
     5     2     3   ar
     6     3     4   ar
     7     4    21    1
     8    22    21    1
     9    22    23    1
    10    23    24    1
    11    24    25    1
    12    25    26    1
    13    26    27    1
    14     4     5   ar
    15     5     6   ar
    16     6     7   ar
    17     7    10    1
    18    10    11   ar
    19    11    12   ar
    20    12    13   ar
    21    13    14   ar
    22    14    15   ar
    23     7     8   ar
    24     8     9   ar
    25     9     1   ar
    26    27    22    1
    27     9     5   ar
    28    15    10   ar
    29    16    19    1
    30    16    20    1
    31    26    28    1
@<TRIPOS>MOLECULE
*****
 28 31 0 0 0
SMALL
GASTEIGER

@<TRIPOS>ATOM
      1 C         139.3709  144.1113  162.4423 C.ar    1  UNL1        0.0784
      2 C         138.6050  143.3903  161.3729 C.ar    1  UNL1        0.1070
      3 N         138.1595  141.9752  161.5940 N.ar    1  UNL1       -0.2100
      4 C         138.4799  141.2810  162.8846 C.ar    1  UNL1        0.2252
      5 C         139.2457  142.0020  163.9540 C.ar    1  UNL1        0.0598
      6 C         139.7044  141.5794  165.3182 C.ar    1  UNL1        0.0116
      7 C         140.4335  142.7334  165.9401 C.ar    1  UNL1        0.0296
      8 S         140.4253  143.8692  164.9603 S.2     1  UNL1       -0.0866
      9 C         139.6912  143.4171  163.7328 C.ar    1  UNL1        0.0398
     10 C         141.0606  142.7489  167.3026 C.ar    1  UNL1        0.0060
     11 C         140.2812  143.2520  168.4813 C.ar    1  UNL1        0.0005
     12 C         140.9084  143.2675  169.8439 C.ar    1  UNL1        0.0000
     13 C         142.3149  142.7799  170.0277 C.ar    1  UNL1        0.0000
     14 C         143.0944  142.2768  168.8490 C.ar    1  UNL1        0.0000
     15 C         142.4671  142.2613  167.4865 C.ar    1  UNL1        0.0005
     16 N         141.0603  146.0340  162.8881 N.am    1  UNL1       -0.3253
     17 C         139.8164  145.5264  162.2211 C.2     1  UNL1        0.2448
     18 O         139.0179  146.4340  161.3329 O.2     1  UNL1       -0.2703
     19 H         141.3527  146.9628  162.7429 H       1  UNL1        0.1453
     20 H         141.5844  145.4384  163.4710 H       1  UNL1        0.1453
     21 O         138.0343  139.8658  163.1057 O.3     1  UNL1       -0.4625
     22 C         139.0508  138.7860  163.3311 C.3     1  UNL1        0.1832
     23 C         139.1794  138.1474  164.6822 C.3     1  UNL1        0.0465
     24 C         140.1959  137.0676  164.9077 C.3     1  UNL1        0.0208
     25 C         141.0837  136.6265  163.7821 C.3     1  UNL1        0.0688
     26 N         140.9551  137.2651  162.4309 N.3     1  UNL1       -0.2945
     27 C         139.9386  138.3449  162.2054 C.3     1  UNL1        0.1127
     28 H         140.7416  136.5173  161.7709 H       1  UNL1        0.1234
@<TRIPOS>BOND
     1    16    17   am
     2    17    18    2
     3    17     1    1
     4     1     2   ar
     5     2     3   ar
     6     3     4   ar
     7     4    21    1
     8    22    21    1
     9    22    23    1
    10    23    24    1
    11    24    25    1
    12    25    26    1
    13    26    27    1
    14     4     5   ar
    15     5     6   ar
    16     6     7   ar
    17     7    10    1
    18    10    11   ar
    19    11    12   ar
    20    12    13   ar
    21    13    14   ar
    22    14    15   ar
    23     7     8   ar
    24     8     9   ar
    25     9     1   ar
    26    27    22    1
    27     9     5   ar
    28    15    10   ar
    29    16    19    1
    30    16    20    1
    31    26    28    1
@<TRIPOS>MOLECULE
*****
 28 31 0 0 0
SMALL
GASTEIGER

@<TRIPOS>ATOM
      1 C         142.3037  140.5976  168.7478 C.ar    1  UNL1        0.0784
      2 C         143.3156  141.6166  169.1808 C.ar    1  UNL1        0.1070
      3 N         143.8208  142.6348  168.2021 N.ar    1  UNL1       -0.2100
      4 C         143.3141  142.6340  166.7902 C.ar    1  UNL1        0.2252
      5 C         142.3022  141.6149  166.3572 C.ar    1  UNL1        0.0598
      6 C         141.6244  141.3696  165.0418 C.ar    1  UNL1        0.0116
      7 C         140.7004  140.1997  165.2076 C.ar    1  UNL1        0.0296
      8 S         140.8070  139.7221  166.6255 S.2     1  UNL1       -0.0866
      9 C         141.7970  140.5967  167.3360 C.ar    1  UNL1        0.0398
     10 C         139.8236  139.6109  164.1424 C.ar    1  UNL1        0.0060
     11 C         140.0124  138.1842  163.7195 C.ar    1  UNL1        0.0005
     12 C         139.1355  137.5954  162.6544 C.ar    1  UNL1        0.0000
     13 C         138.0699  138.4332  162.0122 C.ar    1  UNL1        0.0000
     14 C         137.8811  139.8599  162.4351 C.ar    1  UNL1        0.0000
     15 C         138.7580  140.4487  163.5002 C.ar    1  UNL1        0.0005
     16 N         142.7203  138.5157  170.2453 N.am    1  UNL1       -0.3253
     17 C         141.7985  139.5794  169.7266 C.2     1  UNL1        0.2448
     18 O         140.3715  139.6248  170.1868 O.2     1  UNL1       -0.2703
     19 H         142.3887  137.8475  170.8877 H       1  UNL1        0.1453
     20 H         143.6569  138.4859  169.9433 H       1  UNL1        0.1453
     21 O         143.8193  143.6523  165.8115 O.3     1  UNL1       -0.4625
     22 C         144.2510  143.2248  164.4401 C.3     1  UNL1        0.1832
     23 C         143.6049  143.8284  163.2283 C.3     1  UNL1        0.0465
     24 C         144.0365  143.4009  161.8569 C.3     1  UNL1        0.0208
     25 C         145.1141  142.3698  161.6971 C.3     1  UNL1        0.0688
     26 N         145.7602  141.7662  162.9088 N.3     1  UNL1       -0.2945
     27 C         145.3286  142.1937  164.2803 C.3     1  UNL1        0.1127
     28 H         146.7585  141.9636  162.8394 H       1  UNL1        0.1234
@<TRIPOS>BOND
     1    16    17   am
     2    17    18    2
     3    17     1    1
     4     1     2   ar
     5     2     3   ar
     6     3     4   ar
     7     4    21    1
     8    22    21    1
     9    22    23    1
    10    23    24    1
    11    24    25    1
    12    25    26    1
    13    26    27    1
    14     4     5   ar
    15     5     6   ar
    16     6     7   ar
    17     7    10    1
    18    10    11   ar
    19    11    12   ar
    20    12    13   ar
    21    13    14   ar
    22    14    15   ar
    23     7     8   ar
    24     8     9   ar
    25     9     1   ar
    26    27    22    1
    27     9     5   ar
    28    15    10   ar
    29    16    19    1
    30    16    20    1
    31    26    28    1
@<TRIPOS>MOLECULE
*****
 28 31 0 0 0
SMALL
GASTEIGER

@<TRIPOS>ATOM
      1 C         140.8961  138.9004  163.1823 C.ar    1  UNL1        0.0784
      2 C         141.4537  139.2439  161.8329 C.ar    1  UNL1        0.1070
      3 N         142.0082  140.6139  161.5771 N.ar    1  UNL1       -0.2100
      4 C         142.0053  141.6405  162.6708 C.ar    1  UNL1        0.2252
      5 C         141.4477  141.2970  164.0203 C.ar    1  UNL1        0.0598
      6 C         141.3113  142.0954  165.2827 C.ar    1  UNL1        0.0116
      7 C         140.6725  141.2188  166.3188 C.ar    1  UNL1        0.0296
      8 S         140.4140  139.8786  165.6966 S.2     1  UNL1       -0.0866
      9 C         140.8932  139.9269  164.2760 C.ar    1  UNL1        0.0398
     10 C         140.3488  141.6131  167.7294 C.ar    1  UNL1        0.0060
     11 C         140.6594  142.9995  168.2106 C.ar    1  UNL1        0.0005
     12 C         140.3357  143.3937  169.6213 C.ar    1  UNL1        0.0000
     13 C         139.7016  142.4017  170.5506 C.ar    1  UNL1        0.0000
     14 C         139.3911  141.0154  170.0694 C.ar    1  UNL1        0.0000
     15 C         139.7147  140.6211  168.6588 C.ar    1  UNL1        0.0005
     16 N         141.2395  136.4400  163.9430 N.am    1  UNL1       -0.3253
     17 C         140.3416  137.5303  163.4381 C.2     1  UNL1        0.2448
     18 O         138.8890  137.2506  163.1890 O.2     1  UNL1       -0.2703
     19 H         140.8755  135.5408  164.1109 H       1  UNL1        0.1453
     20 H         142.1928  136.6236  164.1065 H       1  UNL1        0.1453
     21 O         142.5599  143.0106  162.4149 O.3     1  UNL1       -0.4625
     22 C         141.6368  144.1401  162.0655 C.3     1  UNL1        0.1832
     23 C         141.1631  144.3118  160.6527 C.3     1  UNL1        0.0465
     24 C         140.2400  145.4413  160.3032 C.3     1  UNL1        0.0208
     25 C         139.7907  146.3991  161.3666 C.3     1  UNL1        0.0688
     26 N         140.2645  146.2274  162.7794 N.3     1  UNL1       -0.2945
     27 C         141.1875  145.0979  163.1289 C.3     1  UNL1        0.1127
     28 H         139.4317  146.1168  163.3579 H       1  UNL1        0.1234
@<TRIPOS>BOND
     1    16    17   am
     2    17    18    2
     3    17     1    1
     4     1     2   ar
     5     2     3   ar
     6     3     4   ar
     7     4    21    1
     8    22    21    1
     9    22    23    1
    10    23    24    1
    11    24    25    1
    12    25    26    1
    13    26    27    1
    14     4     5   ar
    15     5     6   ar
    16     6     7   ar
    17     7    10    1
    18    10    11   ar
    19    11    12   ar
    20    12    13   ar
    21    13    14   ar
    22    14    15   ar
    23     7     8   ar
    24     8     9   ar
    25     9     1   ar
    26    27    22    1
    27     9     5   ar
    28    15    10   ar
    29    16    19    1
    30    16    20    1
    31    26    28    1
@<TRIPOS>MOLECULE
*****
 28 31 0 0 0
SMALL
GASTEIGER

@<TRIPOS>ATOM
      1 C         138.5055  141.5795  158.6444 C.ar    1  UNL1        0.0784
      2 C         138.8809  142.8934  158.0257 C.ar    1  UNL1        0.1070
      3 N         139.4249  143.9977  158.8826 N.ar    1  UNL1       -0.2100
      4 C         139.5936  143.7882  160.3584 C.ar    1  UNL1        0.2252
      5 C         139.2183  142.4743  160.9770 C.ar    1  UNL1        0.0598
      6 C         139.2730  141.9790  162.3919 C.ar    1  UNL1        0.0116
      7 C         138.7627  140.5686  162.4093 C.ar    1  UNL1        0.0296
      8 S         138.3927  140.1921  161.0052 S.2     1  UNL1       -0.0866
      9 C         138.6743  141.3699  160.1200 C.ar    1  UNL1        0.0398
     10 C         138.6434  139.6890  163.6184 C.ar    1  UNL1        0.0060
     11 C         138.1438  140.2579  164.9134 C.ar    1  UNL1        0.0005
     12 C         138.0246  139.3782  166.1225 C.ar    1  UNL1        0.0000
     13 C         138.4049  137.9297  166.0368 C.ar    1  UNL1        0.0000
     14 C         138.9045  137.3609  164.7419 C.ar    1  UNL1        0.0000
     15 C         139.0238  138.2406  163.5327 C.ar    1  UNL1        0.0005
     16 N         136.5902  140.5945  157.1914 N.am    1  UNL1       -0.3253
     17 C         137.9615  140.4751  157.7874 C.2     1  UNL1        0.2448
     18 O         138.7889  139.2514  157.5263 O.2     1  UNL1       -0.2703
     19 H         136.2331  139.8697  156.6289 H       1  UNL1        0.1453
     20 H         136.0472  141.3976  157.3627 H       1  UNL1        0.1453
     21 O         140.1377  144.8926  161.2153 O.3     1  UNL1       -0.4625
     22 C         141.4693  144.7339  161.8872 C.3     1  UNL1        0.1832
     23 C         141.6857  145.2891  163.2638 C.3     1  UNL1        0.0465
     24 C         143.0173  145.1304  163.9358 C.3     1  UNL1        0.0208
     25 C         144.1326  144.4166  163.2311 C.3     1  UNL1        0.0688
     26 N         143.9163  143.8615  161.8545 N.3     1  UNL1       -0.2945
     27 C         142.5847  144.0201  161.1826 C.3     1  UNL1        0.1127
     28 H         144.1014  142.8599  161.9085 H       1  UNL1        0.1234
@<TRIPOS>BOND
     1    16    17   am
     2    17    18    2
     3    17     1    1
     4     1     2   ar
     5     2     3   ar
     6     3     4   ar
     7     4    21    1
     8    22    21    1
     9    22    23    1
    10    23    24    1
    11    24    25    1
    12    25    26    1
    13    26    27    1
    14     4     5   ar
    15     5     6   ar
    16     6     7   ar
    17     7    10    1
    18    10    11   ar
    19    11    12   ar
    20    12    13   ar
    21    13    14   ar
    22    14    15   ar
    23     7     8   ar
    24     8     9   ar
    25     9     1   ar
    26    27    22    1
    27     9     5   ar
    28    15    10   ar
    29    16    19    1
    30    16    20    1
    31    26    28    1
@<TRIPOS>MOLECULE
*****
 28 31 0 0 0
SMALL
GASTEIGER

@<TRIPOS>ATOM
      1 C         142.7286  142.9048  162.4420 C.ar    1  UNL1        0.0784
      2 C         141.8823  142.5098  161.2682 C.ar    1  UNL1        0.1070
      3 N         140.5498  141.8579  161.4899 N.ar    1  UNL1       -0.2100
      4 C         140.0634  141.6009  162.8854 C.ar    1  UNL1        0.2252
      5 C         140.9097  141.9958  164.0592 C.ar    1  UNL1        0.0598
      6 C         140.6956  141.8700  165.5385 C.ar    1  UNL1        0.0116
      7 C         141.8959  142.4443  166.2310 C.ar    1  UNL1        0.0296
      8 S         142.8518  142.9249  165.1798 S.2     1  UNL1       -0.0866
      9 C         142.2423  142.6477  163.8375 C.ar    1  UNL1        0.0398
     10 C         142.1037  142.5239  167.7144 C.ar    1  UNL1        0.0060
     11 C         143.4655  142.2818  168.2950 C.ar    1  UNL1        0.0005
     12 C         143.6733  142.3614  169.7784 C.ar    1  UNL1        0.0000
     13 C         142.5194  142.6831  170.6813 C.ar    1  UNL1        0.0000
     14 C         141.1577  142.9252  170.1007 C.ar    1  UNL1        0.0000
     15 C         140.9499  142.8456  168.6173 C.ar    1  UNL1        0.0005
     16 N         145.1997  142.7621  161.6525 N.am    1  UNL1       -0.3253
     17 C         144.0612  143.5567  162.2202 C.2     1  UNL1        0.2448
     18 O         144.2553  145.0034  162.5663 O.2     1  UNL1       -0.2703
     19 H         146.0744  143.1900  161.5069 H       1  UNL1        0.1453
     20 H         145.0723  141.8126  161.4254 H       1  UNL1        0.1453
     21 O         138.7308  140.9489  163.1071 O.3     1  UNL1       -0.4625
     22 C         138.6217  139.7510  164.0032 C.3     1  UNL1        0.1832
     23 C         138.0729  139.9004  165.3912 C.3     1  UNL1        0.0465
     24 C         137.9637  138.7025  166.2874 C.3     1  UNL1        0.0208
     25 C         138.4033  137.3553  165.7957 C.3     1  UNL1        0.0688
     26 N         138.9521  137.2060  164.4077 N.3     1  UNL1       -0.2945
     27 C         139.0613  138.4039  163.5114 C.3     1  UNL1        0.1127
     28 H         138.3569  136.5317  163.9267 H       1  UNL1        0.1234
@<TRIPOS>BOND
     1    16    17   am
     2    17    18    2
     3    17     1    1
     4     1     2   ar
     5     2     3   ar
     6     3     4   ar
     7     4    21    1
     8    22    21    1
     9    22    23    1
    10    23    24    1
    11    24    25    1
    12    25    26    1
    13    26    27    1
    14     4     5   ar
    15     5     6   ar
    16     6     7   ar
    17     7    10    1
    18    10    11   ar
    19    11    12   ar
    20    12    13   ar
    21    13    14   ar
    22    14    15   ar
    23     7     8   ar
    24     8     9   ar
    25     9     1   ar
    26    27    22    1
    27     9     5   ar
    28    15    10   ar
    29    16    19    1
    30    16    20    1
    31    26    28    1
