@<TRIPOS>MOLECULE
*****
 34 38 0 0 0
SMALL
GASTEIGER

@<TRIPOS>ATOM
      1 C         140.3782  141.4152  166.3949 C.ar    1  UNL1        0.0670
      2 C         140.6143  142.8865  166.2241 C.ar    1  UNL1        0.0191
      3 C         139.9110  143.6371  165.1323 C.ar    1  UNL1        0.0203
      4 C         138.9716  142.9163  164.2115 C.ar    1  UNL1        0.0795
      5 C         138.7355  141.4449  164.3824 C.ar    1  UNL1        0.0396
      6 C         137.7605  141.0067  163.3301 C.ar    1  UNL1        0.1216
      7 N         137.3940  142.2072  162.5088 N.ar    1  UNL1       -0.1677
      8 N         138.1425  143.3875  163.0535 N.ar    1  UNL1       -0.2494
      9 C         139.4388  140.6944  165.4741 C.ar    1  UNL1        0.0207
     10 O         142.7305  139.6716  165.7416 O.2     1  UNL1       -0.2665
     11 C         142.2577  139.7927  167.1601 C.ar    1  UNL1        0.2679
     12 C         142.9610  139.0420  168.2517 C.ar    1  UNL1        0.0980
     13 C         142.4882  139.1632  169.6702 C.ar    1  UNL1        0.1453
     14 C         141.3121  140.0350  169.9968 C.ar    1  UNL1        0.0561
     15 C         140.6087  140.7856  168.9051 C.ar    1  UNL1        0.0860
     16 N         141.0815  140.6645  167.4867 N.ar    1  UNL1       -0.2729
     17 O         143.1915  138.4125  170.7619 O.3     1  UNL1       -0.4704
     18 C         143.7575  137.0502  170.4908 C.3     1  UNL1        0.2320
     19 C         144.6773  136.4083  171.4870 C.ar    1  UNL1        0.0212
     20 C         145.6390  137.2509  172.2713 C.ar    1  UNL1       -0.0007
     21 C         146.5587  136.6091  173.2673 C.ar    1  UNL1       -0.0002
     22 C         146.5166  135.1247  173.4792 C.ar    1  UNL1       -0.0000
     23 C         145.5549  134.2821  172.6949 C.ar    1  UNL1       -0.0002
     24 C         144.6352  134.9240  171.6988 C.ar    1  UNL1       -0.0007
     25 C         138.0740  144.7922  162.5319 C.3     1  UNL1        0.1447
     26 C         139.2943  145.4327  161.9399 C.3     1  UNL1        0.0988
     27 N         140.2743  144.6043  161.1633 N.3     1  UNL1       -0.2700
     28 C         140.0110  143.9262  159.8515 C.3     1  UNL1        0.0722
     29 C         141.2637  143.2114  159.4395 C.3     1  UNL1        0.0188
     30 C         142.3012  143.4476  160.4967 C.3     1  UNL1        0.0199
     31 C         141.6897  144.3085  161.5621 C.3     1  UNL1        0.0871
     32 C         142.3737  144.7893  162.8076 C.3     1  UNL1        0.1530
     33 O         143.7253  145.4338  162.7199 O.3     1  UNL1       -0.3806
     34 H         144.3761  144.7804  162.4192 H       1  UNL1        0.2105
@<TRIPOS>BOND
     1    10    11    2
     2    11    12   ar
     3    12    13   ar
     4    13    17    1
     5    17    18    1
     6    18    19    1
     7    19    20   ar
     8    20    21   ar
     9    21    22   ar
    10    22    23   ar
    11    23    24   ar
    12    13    14   ar
    13    14    15   ar
    14    15    16   ar
    15    16     1    1
    16     1     2   ar
    17     2     3   ar
    18     3     4   ar
    19     4     5   ar
    20     5     6   ar
    21     6     7   ar
    22     7     8   ar
    23     8    25    1
    24    25    26    1
    25    26    27    1
    26    27    28    1
    27    28    29    1
    28    29    30    1
    29    30    31    1
    30    31    32    1
    31    32    33    1
    32     5     9   ar
    33    16    11   ar
    34     9     1   ar
    35    24    19   ar
    36     8     4   ar
    37    31    27    1
    38    33    34    1
@<TRIPOS>MOLECULE
*****
 34 38 0 0 0
SMALL
GASTEIGER

@<TRIPOS>ATOM
      1 C         141.7690  142.2946  166.3668 C.ar    1  UNL1        0.0670
      2 C         142.7439  142.6618  165.2877 C.ar    1  UNL1        0.0191
      3 C         142.3130  143.5497  164.1582 C.ar    1  UNL1        0.0203
      4 C         140.9071  144.0704  164.1078 C.ar    1  UNL1        0.0795
      5 C         139.9322  143.7032  165.1870 C.ar    1  UNL1        0.0396
      6 C         138.6224  144.3632  164.8726 C.ar    1  UNL1        0.1216
      7 N         138.7878  145.1383  163.5991 N.ar    1  UNL1       -0.1677
      8 N         140.1998  144.9574  163.1264 N.ar    1  UNL1       -0.2494
      9 C         140.3632  142.8152  166.3165 C.ar    1  UNL1        0.0207
     10 O         141.6092  139.3130  166.0759 O.2     1  UNL1       -0.2665
     11 C         142.1200  139.9158  167.3509 C.ar    1  UNL1        0.2679
     12 C         142.5509  139.0278  168.4804 C.ar    1  UNL1        0.0980
     13 C         143.0617  139.6307  169.7555 C.ar    1  UNL1        0.1453
     14 C         143.1417  141.1214  169.9010 C.ar    1  UNL1        0.0561
     15 C         142.7107  142.0094  168.7714 C.ar    1  UNL1        0.0860
     16 N         142.1999  141.4066  167.4964 N.ar    1  UNL1       -0.2729
     17 O         143.4926  138.7427  170.8850 O.3     1  UNL1       -0.4704
     18 C         143.7518  137.2862  170.6371 C.3     1  UNL1        0.2320
     19 C         144.6728  136.5235  171.5427 C.ar    1  UNL1        0.0212
     20 C         145.7642  137.2415  172.2797 C.ar    1  UNL1       -0.0007
     21 C         146.6851  136.4787  173.1853 C.ar    1  UNL1       -0.0002
     22 C         146.5145  134.9980  173.3539 C.ar    1  UNL1       -0.0000
     23 C         145.4231  134.2801  172.6169 C.ar    1  UNL1       -0.0002
     24 C         144.5022  135.0428  171.7113 C.ar    1  UNL1       -0.0007
     25 C         140.7994  145.5580  161.8895 C.3     1  UNL1        0.1447
     26 C         139.9420  145.8029  160.6834 C.3     1  UNL1        0.0988
     27 N         139.9240  144.8076  159.5613 N.3     1  UNL1       -0.2700
     28 C         140.4264  145.0411  158.1674 C.3     1  UNL1        0.0722
     29 C         140.2133  143.7818  157.3809 C.3     1  UNL1        0.0188
     30 C         139.5792  142.7699  158.2886 C.3     1  UNL1        0.0199
     31 C         139.4004  143.4039  159.6363 C.3     1  UNL1        0.0871
     32 C         138.8029  142.7492  160.8464 C.3     1  UNL1        0.1530
     33 O         137.5862  143.3399  161.4950 O.3     1  UNL1       -0.3806
     34 H         137.8089  144.2055  161.8720 H       1  UNL1        0.2105
@<TRIPOS>BOND
     1    10    11    2
     2    11    12   ar
     3    12    13   ar
     4    13    17    1
     5    17    18    1
     6    18    19    1
     7    19    20   ar
     8    20    21   ar
     9    21    22   ar
    10    22    23   ar
    11    23    24   ar
    12    13    14   ar
    13    14    15   ar
    14    15    16   ar
    15    16     1    1
    16     1     2   ar
    17     2     3   ar
    18     3     4   ar
    19     4     5   ar
    20     5     6   ar
    21     6     7   ar
    22     7     8   ar
    23     8    25    1
    24    25    26    1
    25    26    27    1
    26    27    28    1
    27    28    29    1
    28    29    30    1
    29    30    31    1
    30    31    32    1
    31    32    33    1
    32     5     9   ar
    33    16    11   ar
    34     9     1   ar
    35    24    19   ar
    36     8     4   ar
    37    31    27    1
    38    33    34    1
@<TRIPOS>MOLECULE
*****
 34 38 0 0 0
SMALL
GASTEIGER

@<TRIPOS>ATOM
      1 C         141.7832  143.7648  161.4290 C.ar    1  UNL1        0.0670
      2 C         140.7997  142.7836  161.9947 C.ar    1  UNL1        0.0191
      3 C         140.9927  142.2427  163.3804 C.ar    1  UNL1        0.0203
      4 C         142.1690  142.6831  164.2003 C.ar    1  UNL1        0.0795
      5 C         143.1525  143.6643  163.6346 C.ar    1  UNL1        0.0396
      6 C         144.2082  143.9122  164.6709 C.ar    1  UNL1        0.1216
      7 N         143.8773  143.0843  165.8771 N.ar    1  UNL1       -0.1677
      8 N         142.6170  142.3246  165.5864 N.ar    1  UNL1       -0.2494
      9 C         142.9595  144.2051  162.2489 C.ar    1  UNL1        0.0207
     10 O         139.6399  145.7952  160.8962 O.2     1  UNL1       -0.2665
     11 C         140.5186  145.3209  159.7768 C.ar    1  UNL1        0.2679
     12 C         140.3257  145.8618  158.3912 C.ar    1  UNL1        0.0980
     13 C         141.2044  145.3875  157.2718 C.ar    1  UNL1        0.1453
     14 C         142.2760  144.3723  157.5381 C.ar    1  UNL1        0.0561
     15 C         142.4689  143.8314  158.9239 C.ar    1  UNL1        0.0860
     16 N         141.5902  144.3057  160.0432 N.ar    1  UNL1       -0.2729
     17 O         141.0114  145.9285  155.8861 O.3     1  UNL1       -0.4704
     18 C         139.6593  146.4102  155.4506 C.3     1  UNL1        0.2320
     19 C         139.3871  147.8811  155.3395 C.ar    1  UNL1        0.0212
     20 C         138.6403  148.5901  156.4301 C.ar    1  UNL1       -0.0007
     21 C         138.3681  150.0610  156.3190 C.ar    1  UNL1       -0.0002
     22 C         138.8428  150.8229  155.1172 C.ar    1  UNL1       -0.0000
     23 C         139.5897  150.1139  154.0266 C.ar    1  UNL1       -0.0002
     24 C         139.8618  148.6430  154.1377 C.ar    1  UNL1       -0.0007
     25 C         141.9260  141.3735  166.5179 C.3     1  UNL1        0.1447
     26 C         141.9047  139.9054  166.2108 C.3     1  UNL1        0.0988
     27 N         140.6006  139.2134  165.9457 N.3     1  UNL1       -0.2700
     28 C         139.2751  139.5681  166.5517 C.3     1  UNL1        0.0722
     29 C         138.2483  138.6191  166.0086 C.3     1  UNL1        0.0188
     30 C         138.9392  137.6778  165.0669 C.3     1  UNL1        0.0199
     31 C         140.3930  138.0452  165.0281 C.3     1  UNL1        0.0871
     32 C         141.4531  137.3638  164.2144 C.3     1  UNL1        0.1530
     33 O         141.1115  136.7798  162.8757 O.3     1  UNL1       -0.3806
     34 H         140.4963  136.0392  162.9935 H       1  UNL1        0.2105
@<TRIPOS>BOND
     1    10    11    2
     2    11    12   ar
     3    12    13   ar
     4    13    17    1
     5    17    18    1
     6    18    19    1
     7    19    20   ar
     8    20    21   ar
     9    21    22   ar
    10    22    23   ar
    11    23    24   ar
    12    13    14   ar
    13    14    15   ar
    14    15    16   ar
    15    16     1    1
    16     1     2   ar
    17     2     3   ar
    18     3     4   ar
    19     4     5   ar
    20     5     6   ar
    21     6     7   ar
    22     7     8   ar
    23     8    25    1
    24    25    26    1
    25    26    27    1
    26    27    28    1
    27    28    29    1
    28    29    30    1
    29    30    31    1
    30    31    32    1
    31    32    33    1
    32     5     9   ar
    33    16    11   ar
    34     9     1   ar
    35    24    19   ar
    36     8     4   ar
    37    31    27    1
    38    33    34    1
@<TRIPOS>MOLECULE
*****
 34 38 0 0 0
SMALL
GASTEIGER

@<TRIPOS>ATOM
      1 C         140.9854  139.8099  159.7555 C.ar    1  UNL1        0.0670
      2 C         141.0861  139.3788  161.1887 C.ar    1  UNL1        0.0191
      3 C         140.8602  140.3734  162.2886 C.ar    1  UNL1        0.0203
      4 C         140.5336  141.7989  161.9553 C.ar    1  UNL1        0.0795
      5 C         140.4330  142.2300  160.5222 C.ar    1  UNL1        0.0396
      6 C         140.0985  143.6921  160.5003 C.ar    1  UNL1        0.1216
      7 N         139.9924  144.1646  161.9200 N.ar    1  UNL1       -0.1677
      8 N         140.2613  142.9946  162.8193 N.ar    1  UNL1       -0.2494
      9 C         140.6589  141.2355  159.4223 C.ar    1  UNL1        0.0207
     10 O         143.7736  138.9435  159.0661 O.2     1  UNL1       -0.2665
     11 C         142.6054  138.3822  158.3108 C.ar    1  UNL1        0.2679
     12 C         142.8314  137.3877  157.2108 C.ar    1  UNL1        0.0980
     13 C         141.6632  136.8264  156.4555 C.ar    1  UNL1        0.1453
     14 C         140.2691  137.2596  156.8003 C.ar    1  UNL1        0.0561
     15 C         140.0432  138.2541  157.9003 C.ar    1  UNL1        0.0860
     16 N         141.2114  138.8154  158.6555 N.ar    1  UNL1       -0.2729
     17 O         141.8892  135.8319  155.3556 O.3     1  UNL1       -0.4704
     18 C         141.7000  134.3673  155.6182 C.3     1  UNL1        0.2320
     19 C         142.8555  133.5342  156.0883 C.ar    1  UNL1        0.0212
     20 C         143.4952  133.8196  157.4147 C.ar    1  UNL1       -0.0007
     21 C         144.6507  132.9865  157.8847 C.ar    1  UNL1       -0.0002
     22 C         145.1663  131.8681  157.0284 C.ar    1  UNL1       -0.0000
     23 C         144.5266  131.5828  155.7020 C.ar    1  UNL1       -0.0002
     24 C         143.3712  132.4159  155.2320 C.ar    1  UNL1       -0.0007
     25 C         140.2585  143.0164  164.3191 C.3     1  UNL1        0.1447
     26 C         141.5288  143.2920  165.0676 C.3     1  UNL1        0.0988
     27 N         142.8176  142.6755  164.6104 N.3     1  UNL1       -0.2700
     28 C         143.3008  141.2947  164.9416 C.3     1  UNL1        0.0722
     29 C         144.6312  141.0975  164.2776 C.3     1  UNL1        0.0188
     30 C         144.9704  142.3564  163.5360 C.3     1  UNL1        0.0199
     31 C         143.8494  143.3318  163.7417 C.3     1  UNL1        0.0871
     32 C         143.7737  144.7197  163.1777 C.3     1  UNL1        0.1530
     33 O         142.9110  144.9975  161.9826 O.3     1  UNL1       -0.3806
     34 H         143.2659  144.5281  161.2115 H       1  UNL1        0.2105
@<TRIPOS>BOND
     1    10    11    2
     2    11    12   ar
     3    12    13   ar
     4    13    17    1
     5    17    18    1
     6    18    19    1
     7    19    20   ar
     8    20    21   ar
     9    21    22   ar
    10    22    23   ar
    11    23    24   ar
    12    13    14   ar
    13    14    15   ar
    14    15    16   ar
    15    16     1    1
    16     1     2   ar
    17     2     3   ar
    18     3     4   ar
    19     4     5   ar
    20     5     6   ar
    21     6     7   ar
    22     7     8   ar
    23     8    25    1
    24    25    26    1
    25    26    27    1
    26    27    28    1
    27    28    29    1
    28    29    30    1
    29    30    31    1
    30    31    32    1
    31    32    33    1
    32     5     9   ar
    33    16    11   ar
    34     9     1   ar
    35    24    19   ar
    36     8     4   ar
    37    31    27    1
    38    33    34    1
@<TRIPOS>MOLECULE
*****
 34 38 0 0 0
SMALL
GASTEIGER

@<TRIPOS>ATOM
      1 C         141.2540  140.1644  160.3007 C.ar    1  UNL1        0.0670
      2 C         141.3274  139.6862  161.7204 C.ar    1  UNL1        0.0191
      3 C         141.3651  140.6781  162.8449 C.ar    1  UNL1        0.0203
      4 C         141.3292  142.1483  162.5497 C.ar    1  UNL1        0.0795
      5 C         141.2557  142.6266  161.1299 C.ar    1  UNL1        0.0396
      6 C         141.2340  144.1263  161.1465 C.ar    1  UNL1        0.1216
      7 N         141.2941  144.5750  162.5766 N.ar    1  UNL1       -0.1677
      8 N         141.3529  143.3525  163.4439 N.ar    1  UNL1       -0.2494
      9 C         141.2181  141.6346  160.0054 C.ar    1  UNL1        0.0207
     10 O         143.7796  138.8157  159.4051 O.2     1  UNL1       -0.2665
     11 C         142.4792  138.4981  158.7283 C.ar    1  UNL1        0.2679
     12 C         142.4416  137.5062  157.6037 C.ar    1  UNL1        0.0980
     13 C         141.1411  137.1886  156.9269 C.ar    1  UNL1        0.1453
     14 C         139.8783  137.8629  157.3747 C.ar    1  UNL1        0.0561
     15 C         139.9159  138.8549  158.4993 C.ar    1  UNL1        0.0860
     16 N         141.2163  139.1724  159.1761 N.ar    1  UNL1       -0.2729
     17 O         141.1036  136.1966  155.8024 O.3     1  UNL1       -0.4704
     18 C         142.3668  135.5240  155.3532 C.3     1  UNL1        0.2320
     19 C         142.7549  134.1950  155.9303 C.ar    1  UNL1        0.0212
     20 C         143.8640  134.1094  156.9366 C.ar    1  UNL1       -0.0007
     21 C         144.2521  132.7804  157.5138 C.ar    1  UNL1       -0.0002
     22 C         143.5312  131.5370  157.0846 C.ar    1  UNL1       -0.0000
     23 C         142.4221  131.6226  156.0783 C.ar    1  UNL1       -0.0002
     24 C         142.0340  132.9515  155.5012 C.ar    1  UNL1       -0.0007
     25 C         141.4231  143.3369  164.9421 C.3     1  UNL1        0.1447
     26 C         140.1748  143.1364  165.7493 C.3     1  UNL1        0.0988
     27 N         139.5616  141.7717  165.8558 N.3     1  UNL1       -0.2700
     28 C         139.9366  140.7116  166.8486 C.3     1  UNL1        0.0722
     29 C         139.0724  139.5122  166.5946 C.3     1  UNL1        0.0188
     30 C         138.1633  139.8310  165.4448 C.3     1  UNL1        0.0199
     31 C         138.4657  141.2274  164.9883 C.3     1  UNL1        0.0871
     32 C         137.7906  141.9524  163.8618 C.3     1  UNL1        0.1530
     33 O         136.6493  141.3080  163.1323 O.3     1  UNL1       -0.3806
     34 H         136.9707  140.5279  162.6538 H       1  UNL1        0.2105
@<TRIPOS>BOND
     1    10    11    2
     2    11    12   ar
     3    12    13   ar
     4    13    17    1
     5    17    18    1
     6    18    19    1
     7    19    20   ar
     8    20    21   ar
     9    21    22   ar
    10    22    23   ar
    11    23    24   ar
    12    13    14   ar
    13    14    15   ar
    14    15    16   ar
    15    16     1    1
    16     1     2   ar
    17     2     3   ar
    18     3     4   ar
    19     4     5   ar
    20     5     6   ar
    21     6     7   ar
    22     7     8   ar
    23     8    25    1
    24    25    26    1
    25    26    27    1
    26    27    28    1
    27    28    29    1
    28    29    30    1
    29    30    31    1
    30    31    32    1
    31    32    33    1
    32     5     9   ar
    33    16    11   ar
    34     9     1   ar
    35    24    19   ar
    36     8     4   ar
    37    31    27    1
    38    33    34    1
@<TRIPOS>MOLECULE
*****
 34 38 0 0 0
SMALL
GASTEIGER

@<TRIPOS>ATOM
      1 C         141.9648  139.0259  162.3570 C.ar    1  UNL1        0.0670
      2 C         141.6822  137.9923  163.4066 C.ar    1  UNL1        0.0191
      3 C         141.8953  138.3170  164.8554 C.ar    1  UNL1        0.0203
      4 C         142.3911  139.6752  165.2546 C.ar    1  UNL1        0.0795
      5 C         142.6738  140.7088  164.2050 C.ar    1  UNL1        0.0396
      6 C         143.1504  141.9523  164.8953 C.ar    1  UNL1        0.1216
      7 N         143.1623  141.6872  166.3717 N.ar    1  UNL1       -0.1677
      8 N         142.6931  140.2799  166.5938 N.ar    1  UNL1       -0.2494
      9 C         142.4606  140.3841  162.7561 C.ar    1  UNL1        0.0207
     10 O         144.3197  138.4838  160.5791 O.2     1  UNL1       -0.2665
     11 C         142.9291  138.4301  160.0192 C.ar    1  UNL1        0.2679
     12 C         142.7160  138.1055  158.5703 C.ar    1  UNL1        0.0980
     13 C         141.3255  138.0519  158.0104 C.ar    1  UNL1        0.1453
     14 C         140.1480  138.3229  158.8993 C.ar    1  UNL1        0.0561
     15 C         140.3612  138.6476  160.3482 C.ar    1  UNL1        0.0860
     16 N         141.7517  138.7012  160.9081 N.ar    1  UNL1       -0.2729
     17 O         141.1124  137.7272  156.5615 O.3     1  UNL1       -0.4704
     18 C         142.1539  136.9578  155.8043 C.3     1  UNL1        0.2320
     19 C         142.2609  135.4715  155.9760 C.ar    1  UNL1        0.0212
     20 C         141.3770  134.5588  155.1788 C.ar    1  UNL1       -0.0007
     21 C         141.4841  133.0726  155.3505 C.ar    1  UNL1       -0.0002
     22 C         142.4752  132.4990  156.3195 C.ar    1  UNL1       -0.0000
     23 C         143.3591  133.4117  157.1167 C.ar    1  UNL1       -0.0002
     24 C         143.2520  134.8979  156.9450 C.ar    1  UNL1       -0.0007
     25 C         142.5507  139.5972  167.9218 C.3     1  UNL1        0.1447
     26 C         142.7363  140.3769  169.1896 C.3     1  UNL1        0.0988
     27 N         141.7602  141.4550  169.5568 N.3     1  UNL1       -0.2700
     28 C         142.0087  142.9324  169.4816 C.3     1  UNL1        0.0722
     29 C         140.7662  143.6354  169.9420 C.3     1  UNL1        0.0188
     30 C         139.7498  142.5926  170.3018 C.3     1  UNL1        0.0199
     31 C         140.3641  141.2450  170.0637 C.3     1  UNL1        0.0871
     32 C         139.6991  139.9200  170.2924 C.3     1  UNL1        0.1530
     33 O         138.2268  139.8583  170.5725 O.3     1  UNL1       -0.3806
     34 H         138.0419  140.2820  171.4252 H       1  UNL1        0.2105
@<TRIPOS>BOND
     1    10    11    2
     2    11    12   ar
     3    12    13   ar
     4    13    17    1
     5    17    18    1
     6    18    19    1
     7    19    20   ar
     8    20    21   ar
     9    21    22   ar
    10    22    23   ar
    11    23    24   ar
    12    13    14   ar
    13    14    15   ar
    14    15    16   ar
    15    16     1    1
    16     1     2   ar
    17     2     3   ar
    18     3     4   ar
    19     4     5   ar
    20     5     6   ar
    21     6     7   ar
    22     7     8   ar
    23     8    25    1
    24    25    26    1
    25    26    27    1
    26    27    28    1
    27    28    29    1
    28    29    30    1
    29    30    31    1
    30    31    32    1
    31    32    33    1
    32     5     9   ar
    33    16    11   ar
    34     9     1   ar
    35    24    19   ar
    36     8     4   ar
    37    31    27    1
    38    33    34    1
@<TRIPOS>MOLECULE
*****
 34 38 0 0 0
SMALL
GASTEIGER

@<TRIPOS>ATOM
      1 C         141.4093  139.0713  160.4750 C.ar    1  UNL1        0.0670
      2 C         141.4088  140.4903  160.9611 C.ar    1  UNL1        0.0191
      3 C         141.3600  140.7791  162.4322 C.ar    1  UNL1        0.0203
      4 C         141.3118  139.6488  163.4172 C.ar    1  UNL1        0.0795
      5 C         141.3122  138.2298  162.9311 C.ar    1  UNL1        0.0396
      6 C         141.2591  137.3293  164.1295 C.ar    1  UNL1        0.1216
      7 N         141.2258  138.1917  165.3563 N.ar    1  UNL1       -0.1677
      8 N         141.2583  139.6253  164.9161 N.ar    1  UNL1       -0.2494
      9 C         141.3610  137.9410  161.4600 C.ar    1  UNL1        0.0207
     10 O         143.9861  139.3805  158.9703 O.2     1  UNL1       -0.2665
     11 C         142.7465  138.9371  158.2515 C.ar    1  UNL1        0.2679
     12 C         142.7953  138.6483  156.7804 C.ar    1  UNL1        0.0980
     13 C         141.5556  138.2049  156.0615 C.ar    1  UNL1        0.1453
     14 C         140.2671  138.0503  156.8139 C.ar    1  UNL1        0.0561
     15 C         140.2184  138.3391  158.2851 C.ar    1  UNL1        0.0860
     16 N         141.4580  138.7825  159.0038 N.ar    1  UNL1       -0.2729
     17 O         141.6044  137.9161  154.5904 O.3     1  UNL1       -0.4704
     18 C         142.4589  136.7968  154.0738 C.3     1  UNL1        0.2320
     19 C         142.5388  135.5037  154.8300 C.ar    1  UNL1        0.0212
     20 C         141.4131  134.5159  154.7477 C.ar    1  UNL1       -0.0007
     21 C         141.4931  133.2230  155.5039 C.ar    1  UNL1       -0.0002
     22 C         142.6989  132.9178  156.3423 C.ar    1  UNL1       -0.0000
     23 C         143.8246  133.9056  156.4246 C.ar    1  UNL1       -0.0002
     24 C         143.7446  135.1986  155.6684 C.ar    1  UNL1       -0.0007
     25 C         141.2406  140.8248  165.8166 C.3     1  UNL1        0.1447
     26 C         139.9327  141.4072  166.2643 C.3     1  UNL1        0.0988
     27 N         139.3284  142.5576  165.5151 N.3     1  UNL1       -0.2700
     28 C         139.5768  144.0124  165.7833 C.3     1  UNL1        0.0722
     29 C         138.7714  144.8090  164.8001 C.3     1  UNL1        0.0188
     30 C         138.0252  143.8467  163.9243 C.3     1  UNL1        0.0199
     31 C         138.3695  142.4552  164.3662 C.3     1  UNL1        0.0871
     32 C         137.8466  141.1843  163.7648 C.3     1  UNL1        0.1530
     33 O         136.5919  141.2043  162.9429 O.3     1  UNL1       -0.3806
     34 H         135.8390  141.4383  163.5079 H       1  UNL1        0.2105
@<TRIPOS>BOND
     1    10    11    2
     2    11    12   ar
     3    12    13   ar
     4    13    17    1
     5    17    18    1
     6    18    19    1
     7    19    20   ar
     8    20    21   ar
     9    21    22   ar
    10    22    23   ar
    11    23    24   ar
    12    13    14   ar
    13    14    15   ar
    14    15    16   ar
    15    16     1    1
    16     1     2   ar
    17     2     3   ar
    18     3     4   ar
    19     4     5   ar
    20     5     6   ar
    21     6     7   ar
    22     7     8   ar
    23     8    25    1
    24    25    26    1
    25    26    27    1
    26    27    28    1
    27    28    29    1
    28    29    30    1
    29    30    31    1
    30    31    32    1
    31    32    33    1
    32     5     9   ar
    33    16    11   ar
    34     9     1   ar
    35    24    19   ar
    36     8     4   ar
    37    31    27    1
    38    33    34    1
@<TRIPOS>MOLECULE
*****
 34 38 0 0 0
SMALL
GASTEIGER

@<TRIPOS>ATOM
      1 C         140.7076  141.1462  166.1130 C.ar    1  UNL1        0.0670
      2 C         139.7033  140.4490  165.2440 C.ar    1  UNL1        0.0191
      3 C         139.0690  141.1787  164.0972 C.ar    1  UNL1        0.0203
      4 C         139.4389  142.6056  163.8195 C.ar    1  UNL1        0.0795
      5 C         140.4431  143.3028  164.6886 C.ar    1  UNL1        0.0396
      6 C         140.6082  144.7024  164.1750 C.ar    1  UNL1        0.1216
      7 N         139.7059  144.8702  162.9885 N.ar    1  UNL1       -0.1677
      8 N         138.9832  143.5743  162.7688 N.ar    1  UNL1       -0.2494
      9 C         141.0775  142.5731  165.8353 C.ar    1  UNL1        0.0207
     10 O         142.9998  139.2755  165.6166 O.2     1  UNL1       -0.2665
     11 C         142.4881  139.4812  167.0117 C.ar    1  UNL1        0.2679
     12 C         143.1225  138.7515  168.1584 C.ar    1  UNL1        0.0980
     13 C         142.6109  138.9571  169.5534 C.ar    1  UNL1        0.1453
     14 C         141.4648  139.8925  169.8016 C.ar    1  UNL1        0.0561
     15 C         140.8304  140.6222  168.6548 C.ar    1  UNL1        0.0860
     16 N         141.3420  140.4165  167.2599 N.ar    1  UNL1       -0.2729
     17 O         143.2453  138.2275  170.7001 O.3     1  UNL1       -0.4704
     18 C         143.9185  136.9072  170.4685 C.3     1  UNL1        0.2320
     19 C         144.7942  136.3149  171.5328 C.ar    1  UNL1        0.0212
     20 C         144.7273  134.8457  171.8272 C.ar    1  UNL1       -0.0007
     21 C         145.6030  134.2535  172.8914 C.ar    1  UNL1       -0.0002
     22 C         146.5455  135.1305  173.6611 C.ar    1  UNL1       -0.0000
     23 C         146.6124  136.5998  173.3666 C.ar    1  UNL1       -0.0002
     24 C         145.7367  137.1920  172.3025 C.ar    1  UNL1       -0.0007
     25 C         137.9809  143.2960  161.6881 C.3     1  UNL1        0.1447
     26 C         138.4082  142.5997  160.4301 C.3     1  UNL1        0.0988
     27 N         139.8034  142.0628  160.3069 N.3     1  UNL1       -0.2700
     28 C         140.2207  140.6367  160.5123 C.3     1  UNL1        0.0722
     29 C         141.7014  140.5503  160.2889 C.3     1  UNL1        0.0188
     30 C         142.1993  141.9229  159.9455 C.3     1  UNL1        0.0199
     31 C         141.0262  142.8577  159.9566 C.3     1  UNL1        0.0871
     32 C         141.0686  144.3291  159.6680 C.3     1  UNL1        0.1530
     33 O         141.7371  145.2636  160.6323 O.3     1  UNL1       -0.3806
     34 H         141.2422  145.2759  161.4664 H       1  UNL1        0.2105
@<TRIPOS>BOND
     1    10    11    2
     2    11    12   ar
     3    12    13   ar
     4    13    17    1
     5    17    18    1
     6    18    19    1
     7    19    20   ar
     8    20    21   ar
     9    21    22   ar
    10    22    23   ar
    11    23    24   ar
    12    13    14   ar
    13    14    15   ar
    14    15    16   ar
    15    16     1    1
    16     1     2   ar
    17     2     3   ar
    18     3     4   ar
    19     4     5   ar
    20     5     6   ar
    21     6     7   ar
    22     7     8   ar
    23     8    25    1
    24    25    26    1
    25    26    27    1
    26    27    28    1
    27    28    29    1
    28    29    30    1
    29    30    31    1
    30    31    32    1
    31    32    33    1
    32     5     9   ar
    33    16    11   ar
    34     9     1   ar
    35    24    19   ar
    36     8     4   ar
    37    31    27    1
    38    33    34    1
@<TRIPOS>MOLECULE
*****
 34 38 0 0 0
SMALL
GASTEIGER

@<TRIPOS>ATOM
      1 C         141.1348  139.0771  160.9320 C.ar    1  UNL1        0.0670
      2 C         141.5919  140.4750  161.2269 C.ar    1  UNL1        0.0191
      3 C         141.4956  141.0168  162.6222 C.ar    1  UNL1        0.0203
      4 C         140.9423  140.1608  163.7228 C.ar    1  UNL1        0.0795
      5 C         140.4853  138.7630  163.4279 C.ar    1  UNL1        0.0396
      6 C         139.9874  138.1586  164.7073 C.ar    1  UNL1        0.1216
      7 N         140.1368  139.1829  165.7928 N.ar    1  UNL1       -0.1677
      8 N         140.7270  140.4204  165.1844 N.ar    1  UNL1       -0.2494
      9 C         140.5815  138.2211  162.0326 C.ar    1  UNL1        0.0207
     10 O         138.7290  139.1123  159.1401 O.2     1  UNL1       -0.2665
     11 C         140.0281  138.5527  158.6407 C.ar    1  UNL1        0.2679
     12 C         140.1242  138.0108  157.2453 C.ar    1  UNL1        0.0980
     13 C         141.4233  137.4513  156.7459 C.ar    1  UNL1        0.1453
     14 C         142.6262  137.4337  157.6418 C.ar    1  UNL1        0.0561
     15 C         142.5300  137.9756  159.0372 C.ar    1  UNL1        0.0860
     16 N         141.2310  138.5351  159.5366 N.ar    1  UNL1       -0.2729
     17 O         141.5195  136.9094  155.3505 O.3     1  UNL1       -0.4704
     18 C         142.6492  135.9961  154.9769 C.3     1  UNL1        0.2320
     19 C         142.6559  134.5755  155.4585 C.ar    1  UNL1        0.0212
     20 C         141.6086  133.6155  154.9773 C.ar    1  UNL1       -0.0007
     21 C         141.6154  132.1950  155.4589 C.ar    1  UNL1       -0.0002
     22 C         142.6695  131.7344  156.4217 C.ar    1  UNL1       -0.0000
     23 C         143.7167  132.6945  156.9029 C.ar    1  UNL1       -0.0002
     24 C         143.7100  134.1150  156.4212 C.ar    1  UNL1       -0.0007
     25 C         141.0458  141.6939  165.9101 C.3     1  UNL1        0.1447
     26 C         140.0259  142.7913  165.9826 C.3     1  UNL1        0.0988
     27 N         139.5475  143.4549  164.7253 N.3     1  UNL1       -0.2700
     28 C         140.1246  144.6941  164.1079 C.3     1  UNL1        0.0722
     29 C         139.3417  145.0009  162.8658 C.3     1  UNL1        0.0188
     30 C         138.2808  143.9513  162.7155 C.3     1  UNL1        0.0199
     31 C         138.4079  142.9958  163.8648 C.3     1  UNL1        0.0871
     32 C         137.5467  141.7925  164.1104 C.3     1  UNL1        0.1530
     33 O         136.6790  141.2543  163.0116 O.3     1  UNL1       -0.3806
     34 H         135.9922  141.9039  162.7944 H       1  UNL1        0.2105
@<TRIPOS>BOND
     1    10    11    2
     2    11    12   ar
     3    12    13   ar
     4    13    17    1
     5    17    18    1
     6    18    19    1
     7    19    20   ar
     8    20    21   ar
     9    21    22   ar
    10    22    23   ar
    11    23    24   ar
    12    13    14   ar
    13    14    15   ar
    14    15    16   ar
    15    16     1    1
    16     1     2   ar
    17     2     3   ar
    18     3     4   ar
    19     4     5   ar
    20     5     6   ar
    21     6     7   ar
    22     7     8   ar
    23     8    25    1
    24    25    26    1
    25    26    27    1
    26    27    28    1
    27    28    29    1
    28    29    30    1
    29    30    31    1
    30    31    32    1
    31    32    33    1
    32     5     9   ar
    33    16    11   ar
    34     9     1   ar
    35    24    19   ar
    36     8     4   ar
    37    31    27    1
    38    33    34    1
