@<TRIPOS>MOLECULE
*****
 25 29 0 0 0
SMALL
GASTEIGER

@<TRIPOS>ATOM
      1 O         140.2157  139.4892  169.2732 O.2     1  UNL1       -0.2666
      2 C         140.1198  140.4811  168.1521 C.2     1  UNL1        0.2834
      3 C         139.7180  140.0261  166.7804 C.ar    1  UNL1        0.1985
      4 N         139.3590  138.6752  166.2360 N.ar    1  UNL1       -0.2227
      5 C         139.0412  138.8323  164.7785 C.ar    1  UNL1        0.0988
      6 C         138.6248  137.8439  163.7299 C.ar    1  UNL1        0.0206
      7 C         138.3710  138.3034  162.3248 C.ar    1  UNL1        0.0016
      8 C         138.5337  139.7513  161.9683 C.ar    1  UNL1        0.0015
      9 C         138.9501  140.7397  163.0169 C.ar    1  UNL1        0.0173
     10 C         139.2039  140.2802  164.4220 C.ar    1  UNL1        0.0790
     11 N         139.6222  141.0180  165.6592 N.ar    1  UNL1       -0.3060
     12 C         139.9281  142.4649  165.9098 C.3     1  UNL1        0.1291
     13 C         140.3300  142.9199  167.2815 C.3     1  UNL1        0.1183
     14 N         140.4258  141.9280  168.4026 N.am    1  UNL1       -0.2716
     15 C         139.1128  142.1876  162.6604 C.ar    1  UNL1        0.0015
     16 C         140.3521  142.6515  161.9542 C.ar    1  UNL1        0.0009
     17 C         140.5148  144.0994  161.5977 C.ar    1  UNL1        0.0114
     18 C         139.4381  145.0834  161.9474 C.ar    1  UNL1        0.0577
     19 CL        139.6008  146.5314  161.5909 Cl      1  UNL1       -0.0822
     20 C         138.1988  144.6196  162.6536 C.ar    1  UNL1        0.0114
     21 C         138.0361  143.1717  163.0101 C.ar    1  UNL1        0.0009
     22 C         140.8277  142.3830  169.7743 C.3     1  UNL1        0.0938
     23 C         142.2686  142.6691  170.0775 C.3     1  UNL1        0.0199
     24 C         143.3085  143.4437  170.8315 C.3     1  UNL1        0.0018
     25 C         143.7245  142.3898  169.8485 C.3     1  UNL1        0.0018
@<TRIPOS>BOND
     1     1     2    2
     2     2     3    1
     3     3     4   ar
     4     4     5   ar
     5     5     6   ar
     6     6     7   ar
     7     7     8   ar
     8     8     9   ar
     9     9    15    1
    10    15    16   ar
    11    16    17   ar
    12    17    18   ar
    13    18    19    1
    14    18    20   ar
    15    20    21   ar
    16     9    10   ar
    17    10    11   ar
    18    11    12    1
    19    12    13    1
    20    13    14    1
    21    14    22    1
    22    22    23    1
    23    23    24    1
    24    24    25    1
    25    14     2   am
    26    25    23    1
    27    11     3   ar
    28    10     5   ar
    29    21    15   ar
@<TRIPOS>MOLECULE
*****
 25 29 0 0 0
SMALL
GASTEIGER

@<TRIPOS>ATOM
      1 O         142.5757  139.7842  161.3089 O.2     1  UNL1       -0.2666
      2 C         142.6630  140.3230  162.7061 C.2     1  UNL1        0.2834
      3 C         141.6141  139.9623  163.7159 C.ar    1  UNL1        0.1985
      4 N         140.3873  139.1039  163.6260 N.ar    1  UNL1       -0.2227
      5 C         139.7163  139.1122  164.9676 C.ar    1  UNL1        0.0988
      6 C         138.4708  138.4450  165.4710 C.ar    1  UNL1        0.0206
      7 C         138.0375  138.6413  166.8936 C.ar    1  UNL1        0.0016
      8 C         138.8497  139.5048  167.8126 C.ar    1  UNL1        0.0015
      9 C         140.0952  140.1720  167.3092 C.ar    1  UNL1        0.0173
     10 C         140.5285  139.9757  165.8867 C.ar    1  UNL1        0.0790
     11 N         141.7014  140.5011  165.1131 N.ar    1  UNL1       -0.3060
     12 C         142.8376  141.4005  165.5004 C.3     1  UNL1        0.1291
     13 C         143.8865  141.7612  164.4906 C.3     1  UNL1        0.1183
     14 N         143.7992  141.2224  163.0934 N.am    1  UNL1       -0.2716
     15 C         140.9074  141.0355  168.2283 C.ar    1  UNL1        0.0015
     16 C         140.4207  142.4063  168.5945 C.ar    1  UNL1        0.0009
     17 C         141.2329  143.2698  169.5136 C.ar    1  UNL1        0.0114
     18 C         142.5317  142.7625  170.0665 C.ar    1  UNL1        0.0577
     19 CL        143.3439  143.6260  170.9856 Cl      1  UNL1       -0.0822
     20 C         143.0183  141.3918  169.7003 C.ar    1  UNL1        0.0114
     21 C         142.2062  140.5283  168.7812 C.ar    1  UNL1        0.0009
     22 C         144.8481  141.5831  162.0836 C.3     1  UNL1        0.0938
     23 C         144.4533  142.2395  160.7939 C.3     1  UNL1        0.0199
     24 C         143.5139  143.1109  160.0141 C.3     1  UNL1        0.0018
     25 C         144.7090  142.5050  159.3399 C.3     1  UNL1        0.0018
@<TRIPOS>BOND
     1     1     2    2
     2     2     3    1
     3     3     4   ar
     4     4     5   ar
     5     5     6   ar
     6     6     7   ar
     7     7     8   ar
     8     8     9   ar
     9     9    15    1
    10    15    16   ar
    11    16    17   ar
    12    17    18   ar
    13    18    19    1
    14    18    20   ar
    15    20    21   ar
    16     9    10   ar
    17    10    11   ar
    18    11    12    1
    19    12    13    1
    20    13    14    1
    21    14    22    1
    22    22    23    1
    23    23    24    1
    24    24    25    1
    25    14     2   am
    26    25    23    1
    27    11     3   ar
    28    10     5   ar
    29    21    15   ar
@<TRIPOS>MOLECULE
*****
 25 29 0 0 0
SMALL
GASTEIGER

@<TRIPOS>ATOM
      1 O         137.5737  138.0165  161.7648 O.2     1  UNL1       -0.2666
      2 C         138.5273  139.0965  162.1825 C.2     1  UNL1        0.2834
      3 C         138.8180  140.2398  161.2560 C.ar    1  UNL1        0.1985
      4 N         138.3191  140.5687  159.8802 N.ar    1  UNL1       -0.2227
      5 C         138.9642  141.8519  159.4476 C.ar    1  UNL1        0.0988
      6 C         138.8502  142.6576  158.1875 C.ar    1  UNL1        0.0206
      7 C         139.6340  143.9275  158.0359 C.ar    1  UNL1        0.0016
      8 C         140.5317  144.3917  159.1444 C.ar    1  UNL1        0.0015
      9 C         140.6457  143.5860  160.4044 C.ar    1  UNL1        0.0173
     10 C         139.8619  142.3161  160.5560 C.ar    1  UNL1        0.0790
     11 N         139.7716  141.3198  161.6737 N.ar    1  UNL1       -0.3060
     12 C         140.4344  141.2564  163.0178 C.3     1  UNL1        0.1291
     13 C         140.1436  140.1130  163.9442 C.3     1  UNL1        0.1183
     14 N         139.1901  139.0331  163.5266 N.am    1  UNL1       -0.2716
     15 C         141.5434  144.0502  161.5128 C.ar    1  UNL1        0.0015
     16 C         142.9863  143.6410  161.5305 C.ar    1  UNL1        0.0009
     17 C         143.8840  144.1052  162.6390 C.ar    1  UNL1        0.0114
     18 C         143.3388  144.9786  163.7297 C.ar    1  UNL1        0.0577
     19 CL        144.2365  145.4428  164.8382 Cl      1  UNL1       -0.0822
     20 C         141.8958  145.3878  163.7120 C.ar    1  UNL1        0.0114
     21 C         140.9981  144.9236  162.6036 C.ar    1  UNL1        0.0009
     22 C         138.8993  137.8898  164.4530 C.3     1  UNL1        0.0938
     23 C         138.3374  138.1549  165.8183 C.3     1  UNL1        0.0199
     24 C         138.2180  139.0380  167.0249 C.3     1  UNL1        0.0018
     25 C         137.4835  137.7311  166.9764 C.3     1  UNL1        0.0018
@<TRIPOS>BOND
     1     1     2    2
     2     2     3    1
     3     3     4   ar
     4     4     5   ar
     5     5     6   ar
     6     6     7   ar
     7     7     8   ar
     8     8     9   ar
     9     9    15    1
    10    15    16   ar
    11    16    17   ar
    12    17    18   ar
    13    18    19    1
    14    18    20   ar
    15    20    21   ar
    16     9    10   ar
    17    10    11   ar
    18    11    12    1
    19    12    13    1
    20    13    14    1
    21    14    22    1
    22    22    23    1
    23    23    24    1
    24    24    25    1
    25    14     2   am
    26    25    23    1
    27    11     3   ar
    28    10     5   ar
    29    21    15   ar
@<TRIPOS>MOLECULE
*****
 25 29 0 0 0
SMALL
GASTEIGER

@<TRIPOS>ATOM
      1 O         137.8021  138.0970  167.4382 O.2     1  UNL1       -0.2666
      2 C         138.6982  139.1217  166.8081 C.2     1  UNL1        0.2834
      3 C         138.9528  139.0882  165.3302 C.ar    1  UNL1        0.1985
      4 N         138.4636  138.1721  164.2479 N.ar    1  UNL1       -0.2227
      5 C         139.0572  138.6306  162.9489 C.ar    1  UNL1        0.0988
      6 C         138.9288  138.1109  161.5478 C.ar    1  UNL1        0.0206
      7 C         139.6566  138.7906  160.4261 C.ar    1  UNL1        0.0016
      8 C         140.5127  139.9901  160.7056 C.ar    1  UNL1        0.0015
      9 C         140.6412  140.5099  162.1067 C.ar    1  UNL1        0.0173
     10 C         139.9134  139.8301  163.2284 C.ar    1  UNL1        0.0790
     11 N         139.8489  140.1129  164.7001 N.ar    1  UNL1       -0.3060
     12 C         140.4903  141.1712  165.5479 C.3     1  UNL1        0.1291
     13 C         140.2356  141.2047  167.0257 C.3     1  UNL1        0.1183
     14 N         139.3396  140.1800  167.6558 N.am    1  UNL1       -0.2716
     15 C         141.4973  141.7094  162.3862 C.ar    1  UNL1        0.0015
     16 C         140.8978  143.0839  162.3493 C.ar    1  UNL1        0.0009
     17 C         141.7539  144.2834  162.6288 C.ar    1  UNL1        0.0114
     18 C         143.2097  144.1085  162.9451 C.ar    1  UNL1        0.0577
     19 CL        144.0659  145.3080  163.2246 Cl      1  UNL1       -0.0822
     20 C         143.8093  142.7341  162.9820 C.ar    1  UNL1        0.0114
     21 C         142.9531  141.5345  162.7026 C.ar    1  UNL1        0.0009
     22 C         139.0849  140.2135  169.1337 C.3     1  UNL1        0.0938
     23 C         139.7246  141.2730  169.9811 C.3     1  UNL1        0.0199
     24 C         139.8164  142.7037  170.4225 C.3     1  UNL1        0.0018
     25 C         140.7408  141.6775  171.0076 C.3     1  UNL1        0.0018
@<TRIPOS>BOND
     1     1     2    2
     2     2     3    1
     3     3     4   ar
     4     4     5   ar
     5     5     6   ar
     6     6     7   ar
     7     7     8   ar
     8     8     9   ar
     9     9    15    1
    10    15    16   ar
    11    16    17   ar
    12    17    18   ar
    13    18    19    1
    14    18    20   ar
    15    20    21   ar
    16     9    10   ar
    17    10    11   ar
    18    11    12    1
    19    12    13    1
    20    13    14    1
    21    14    22    1
    22    22    23    1
    23    23    24    1
    24    24    25    1
    25    14     2   am
    26    25    23    1
    27    11     3   ar
    28    10     5   ar
    29    21    15   ar
@<TRIPOS>MOLECULE
*****
 25 29 0 0 0
SMALL
GASTEIGER

@<TRIPOS>ATOM
      1 O         143.0615  139.0201  168.2157 O.2     1  UNL1       -0.2666
      2 C         142.5686  140.0537  167.2468 C.2     1  UNL1        0.2834
      3 C         142.6213  139.7848  165.7721 C.ar    1  UNL1        0.1985
      4 N         143.1021  138.6026  164.9839 N.ar    1  UNL1       -0.2227
      5 C         142.9063  138.9055  163.5279 C.ar    1  UNL1        0.0988
      6 C         143.1983  138.1113  162.2894 C.ar    1  UNL1        0.0206
      7 C         142.8885  138.6866  160.9392 C.ar    1  UNL1        0.0016
      8 C         142.2867  140.0560  160.8275 C.ar    1  UNL1        0.0015
      9 C         141.9947  140.8502  162.0660 C.ar    1  UNL1        0.0173
     10 C         142.3046  140.2750  163.4162 C.ar    1  UNL1        0.0790
     11 N         142.1284  140.8184  164.8032 N.ar    1  UNL1       -0.3060
     12 C         141.5828  142.1208  165.3090 C.3     1  UNL1        0.1291
     13 C         141.5302  142.3897  166.7838 C.3     1  UNL1        0.1183
     14 N         142.0231  141.3562  167.7527 N.am    1  UNL1       -0.2716
     15 C         141.3930  142.2197  161.9543 C.ar    1  UNL1        0.0015
     16 C         139.9022  142.3857  161.9497 C.ar    1  UNL1        0.0009
     17 C         139.3005  143.7552  161.8380 C.ar    1  UNL1        0.0114
     18 C         140.1894  144.9586  161.7309 C.ar    1  UNL1        0.0577
     19 CL        139.5876  146.3280  161.6193 Cl      1  UNL1       -0.0822
     20 C         141.6802  144.7925  161.7355 C.ar    1  UNL1        0.0114
     21 C         142.2819  143.4231  161.8472 C.ar    1  UNL1        0.0009
     22 C         141.9704  141.6250  169.2275 C.3     1  UNL1        0.0938
     23 C         140.9708  142.5991  169.7771 C.3     1  UNL1        0.0199
     24 C         139.7332  142.8779  170.5774 C.3     1  UNL1        0.0018
     25 C         140.4771  144.0074  169.9286 C.3     1  UNL1        0.0018
@<TRIPOS>BOND
     1     1     2    2
     2     2     3    1
     3     3     4   ar
     4     4     5   ar
     5     5     6   ar
     6     6     7   ar
     7     7     8   ar
     8     8     9   ar
     9     9    15    1
    10    15    16   ar
    11    16    17   ar
    12    17    18   ar
    13    18    19    1
    14    18    20   ar
    15    20    21   ar
    16     9    10   ar
    17    10    11   ar
    18    11    12    1
    19    12    13    1
    20    13    14    1
    21    14    22    1
    22    22    23    1
    23    23    24    1
    24    24    25    1
    25    14     2   am
    26    25    23    1
    27    11     3   ar
    28    10     5   ar
    29    21    15   ar
@<TRIPOS>MOLECULE
*****
 25 29 0 0 0
SMALL
GASTEIGER

@<TRIPOS>ATOM
      1 O         137.8474  140.9526  158.2597 O.2     1  UNL1       -0.2666
      2 C         138.6783  140.5992  159.4575 C.2     1  UNL1        0.2834
      3 C         138.6091  141.4450  160.6944 C.ar    1  UNL1        0.1985
      4 N         137.8200  142.6770  161.0249 N.ar    1  UNL1       -0.2227
      5 C         138.1632  143.0851  162.4270 C.ar    1  UNL1        0.0988
      6 C         137.6934  144.2223  163.2848 C.ar    1  UNL1        0.0206
      7 C         138.2248  144.3796  164.6787 C.ar    1  UNL1        0.0016
      8 C         139.2261  143.3997  165.2146 C.ar    1  UNL1        0.0015
      9 C         139.6959  142.2625  164.3568 C.ar    1  UNL1        0.0173
     10 C         139.1645  142.1052  162.9629 C.ar    1  UNL1        0.0790
     11 N         139.4400  141.0915  161.8921 N.ar    1  UNL1       -0.3060
     12 C         140.3402  139.8923  161.8530 C.3     1  UNL1        0.1291
     13 C         140.4095  139.0466  160.6161 C.3     1  UNL1        0.1183
     14 N         139.5785  139.4000  159.4183 N.am    1  UNL1       -0.2716
     15 C         140.6971  141.2825  164.8927 C.ar    1  UNL1        0.0015
     16 C         142.1647  141.5362  164.7139 C.ar    1  UNL1        0.0009
     17 C         143.1659  140.5563  165.2499 C.ar    1  UNL1        0.0114
     18 C         142.6996  139.3227  165.9647 C.ar    1  UNL1        0.0577
     19 CL        143.7009  138.3428  166.5006 Cl      1  UNL1       -0.0822
     20 C         141.2321  139.0691  166.1434 C.ar    1  UNL1        0.0114
     21 C         140.2309  140.0490  165.6075 C.ar    1  UNL1        0.0009
     22 C         139.6478  138.5542  158.1814 C.3     1  UNL1        0.0938
     23 C         140.9761  138.0807  157.6701 C.3     1  UNL1        0.0199
     24 C         142.4710  138.1981  157.6339 C.3     1  UNL1        0.0018
     25 C         141.7817  137.1430  156.8205 C.3     1  UNL1        0.0018
@<TRIPOS>BOND
     1     1     2    2
     2     2     3    1
     3     3     4   ar
     4     4     5   ar
     5     5     6   ar
     6     6     7   ar
     7     7     8   ar
     8     8     9   ar
     9     9    15    1
    10    15    16   ar
    11    16    17   ar
    12    17    18   ar
    13    18    19    1
    14    18    20   ar
    15    20    21   ar
    16     9    10   ar
    17    10    11   ar
    18    11    12    1
    19    12    13    1
    20    13    14    1
    21    14    22    1
    22    22    23    1
    23    23    24    1
    24    24    25    1
    25    14     2   am
    26    25    23    1
    27    11     3   ar
    28    10     5   ar
    29    21    15   ar
@<TRIPOS>MOLECULE
*****
 25 29 0 0 0
SMALL
GASTEIGER

@<TRIPOS>ATOM
      1 O         143.8300  142.7732  168.2558 O.2     1  UNL1       -0.2666
      2 C         142.9284  142.0854  167.2740 C.2     1  UNL1        0.2834
      3 C         143.2573  142.1074  165.8107 C.ar    1  UNL1        0.1985
      4 N         144.3922  142.7218  165.0461 N.ar    1  UNL1       -0.2227
      5 C         144.1919  142.4137  163.5918 C.ar    1  UNL1        0.0988
      6 C         144.9931  142.7620  162.3725 C.ar    1  UNL1        0.0206
      7 C         144.5356  142.3054  161.0189 C.ar    1  UNL1        0.0016
      8 C         143.2769  141.5006  160.8847 C.ar    1  UNL1        0.0015
      9 C         142.4758  141.1523  162.1040 C.ar    1  UNL1        0.0173
     10 C         142.9333  141.6088  163.4576 C.ar    1  UNL1        0.0790
     11 N         142.3557  141.4195  164.8289 N.ar    1  UNL1       -0.3060
     12 C         141.1252  140.7097  165.3105 C.3     1  UNL1        0.1291
     13 C         140.7963  140.6877  166.7738 C.3     1  UNL1        0.1183
     14 N         141.6979  141.3755  167.7556 N.am    1  UNL1       -0.2716
     15 C         141.2172  140.3474  161.9697 C.ar    1  UNL1        0.0015
     16 C         141.2736  138.8500  162.0382 C.ar    1  UNL1        0.0009
     17 C         140.0149  138.0452  161.9039 C.ar    1  UNL1        0.0114
     18 C         138.6999  138.7377  161.7012 C.ar    1  UNL1        0.0577
     19 CL        137.4413  137.9328  161.5670 Cl      1  UNL1       -0.0822
     20 C         138.6435  140.2350  161.6328 C.ar    1  UNL1        0.0114
     21 C         139.9021  141.0399  161.7670 C.ar    1  UNL1        0.0009
     22 C         141.3690  141.3535  169.2190 C.3     1  UNL1        0.0938
     23 C         140.6649  142.5196  169.8470 C.3     1  UNL1        0.0199
     24 C         139.6618  143.0593  170.8230 C.3     1  UNL1        0.0018
     25 C         140.4486  143.9997  169.9589 C.3     1  UNL1        0.0018
@<TRIPOS>BOND
     1     1     2    2
     2     2     3    1
     3     3     4   ar
     4     4     5   ar
     5     5     6   ar
     6     6     7   ar
     7     7     8   ar
     8     8     9   ar
     9     9    15    1
    10    15    16   ar
    11    16    17   ar
    12    17    18   ar
    13    18    19    1
    14    18    20   ar
    15    20    21   ar
    16     9    10   ar
    17    10    11   ar
    18    11    12    1
    19    12    13    1
    20    13    14    1
    21    14    22    1
    22    22    23    1
    23    23    24    1
    24    24    25    1
    25    14     2   am
    26    25    23    1
    27    11     3   ar
    28    10     5   ar
    29    21    15   ar
@<TRIPOS>MOLECULE
*****
 25 29 0 0 0
SMALL
GASTEIGER

@<TRIPOS>ATOM
      1 O         141.7385  145.2589  159.4211 O.2     1  UNL1       -0.2666
      2 C         141.2792  144.1476  160.3177 C.2     1  UNL1        0.2834
      3 C         141.9558  143.9199  161.6369 C.ar    1  UNL1        0.1985
      4 N         143.0930  144.6236  162.3164 N.ar    1  UNL1       -0.2227
      5 C         143.3365  143.9472  163.6328 C.ar    1  UNL1        0.0988
      6 C         144.3292  144.2078  164.7267 C.ar    1  UNL1        0.0206
      7 C         144.3352  143.3465  165.9548 C.ar    1  UNL1        0.0016
      8 C         143.3485  142.2248  166.0890 C.ar    1  UNL1        0.0015
      9 C         142.3558  141.9642  164.9951 C.ar    1  UNL1        0.0173
     10 C         142.3498  142.8254  163.7671 C.ar    1  UNL1        0.0790
     11 N         141.4965  142.8086  162.5335 N.ar    1  UNL1       -0.3060
     12 C         140.3606  141.9248  162.1109 C.3     1  UNL1        0.1291
     13 C         139.6840  142.1525  160.7916 C.3     1  UNL1        0.1183
     14 N         140.1433  143.2638  159.8950 N.am    1  UNL1       -0.2716
     15 C         141.3691  140.8424  165.1294 C.ar    1  UNL1        0.0015
     16 C         141.7348  139.4627  164.6682 C.ar    1  UNL1        0.0009
     17 C         140.7481  138.3409  164.8025 C.ar    1  UNL1        0.0114
     18 C         139.3957  138.5988  165.3978 C.ar    1  UNL1        0.0577
     19 CL        138.4090  137.4771  165.5320 Cl      1  UNL1       -0.0822
     20 C         139.0300  139.9785  165.8589 C.ar    1  UNL1        0.0114
     21 C         140.0167  141.1003  165.7247 C.ar    1  UNL1        0.0009
     22 C         139.4666  143.4915  158.5758 C.3     1  UNL1        0.0938
     23 C         138.5072  142.4710  158.0390 C.3     1  UNL1        0.0199
     24 C         137.9563  141.0759  158.0459 C.3     1  UNL1        0.0018
     25 C         137.3963  142.0987  157.1024 C.3     1  UNL1        0.0018
@<TRIPOS>BOND
     1     1     2    2
     2     2     3    1
     3     3     4   ar
     4     4     5   ar
     5     5     6   ar
     6     6     7   ar
     7     7     8   ar
     8     8     9   ar
     9     9    15    1
    10    15    16   ar
    11    16    17   ar
    12    17    18   ar
    13    18    19    1
    14    18    20   ar
    15    20    21   ar
    16     9    10   ar
    17    10    11   ar
    18    11    12    1
    19    12    13    1
    20    13    14    1
    21    14    22    1
    22    22    23    1
    23    23    24    1
    24    24    25    1
    25    14     2   am
    26    25    23    1
    27    11     3   ar
    28    10     5   ar
    29    21    15   ar
@<TRIPOS>MOLECULE
*****
 25 29 0 0 0
SMALL
GASTEIGER

@<TRIPOS>ATOM
      1 O         144.4401  140.0559  158.3623 O.2     1  UNL1       -0.2666
      2 C         143.5040  139.9190  159.5263 C.2     1  UNL1        0.2834
      3 C         143.4593  140.9836  160.5821 C.ar    1  UNL1        0.1985
      4 N         144.2134  142.2702  160.7427 N.ar    1  UNL1       -0.2227
      5 C         143.7433  142.9285  162.0060 C.ar    1  UNL1        0.0988
      6 C         144.1316  144.2153  162.6717 C.ar    1  UNL1        0.0206
      7 C         143.4752  144.6223  163.9575 C.ar    1  UNL1        0.0016
      8 C         142.4306  143.7424  164.5777 C.ar    1  UNL1        0.0015
      9 C         142.0423  142.4556  163.9120 C.ar    1  UNL1        0.0173
     10 C         142.6987  142.0486  162.6261 C.ar    1  UNL1        0.0790
     11 N         142.5231  140.8466  161.7461 N.ar    1  UNL1       -0.3060
     12 C         141.6318  139.6451  161.8543 C.3     1  UNL1        0.1291
     13 C         141.6766  138.5805  160.7986 C.3     1  UNL1        0.1183
     14 N         142.6127  138.7174  159.6345 N.am    1  UNL1       -0.2716
     15 C         140.9977  141.5757  164.5321 C.ar    1  UNL1        0.0015
     16 C         139.5496  141.7819  164.1996 C.ar    1  UNL1        0.0009
     17 C         138.5050  140.9021  164.8197 C.ar    1  UNL1        0.0114
     18 C         138.9084  139.8160  165.7724 C.ar    1  UNL1        0.0577
     19 CL        137.8638  138.9362  166.3925 Cl      1  UNL1       -0.0822
     20 C         140.3564  139.6098  166.1050 C.ar    1  UNL1        0.0114
     21 C         141.4011  140.4897  165.4848 C.ar    1  UNL1        0.0009
     22 C         142.6574  137.6528  158.5788 C.3     1  UNL1        0.0938
     23 C         141.6985  137.6987  157.4262 C.3     1  UNL1        0.0199
     24 C         141.4257  137.9478  155.9725 C.3     1  UNL1        0.0018
     25 C         140.3103  137.5291  156.8838 C.3     1  UNL1        0.0018
@<TRIPOS>BOND
     1     1     2    2
     2     2     3    1
     3     3     4   ar
     4     4     5   ar
     5     5     6   ar
     6     6     7   ar
     7     7     8   ar
     8     8     9   ar
     9     9    15    1
    10    15    16   ar
    11    16    17   ar
    12    17    18   ar
    13    18    19    1
    14    18    20   ar
    15    20    21   ar
    16     9    10   ar
    17    10    11   ar
    18    11    12    1
    19    12    13    1
    20    13    14    1
    21    14    22    1
    22    22    23    1
    23    23    24    1
    24    24    25    1
    25    14     2   am
    26    25    23    1
    27    11     3   ar
    28    10     5   ar
    29    21    15   ar
