@<TRIPOS>MOLECULE
*****
 34 39 0 0 0
SMALL
GASTEIGER

@<TRIPOS>ATOM
      1 C         139.1306  142.7870  161.1056 C.3     1  UNL1        0.0747
      2 C         140.0391  141.6280  161.3905 C.3     1  UNL1        0.0369
      3 C         139.9827  140.9406  162.7225 C.3     1  UNL1        0.0740
      4 N         139.0178  141.4123  163.7696 N.3     1  UNL1       -0.2702
      5 C         138.1093  142.5713  163.4848 C.3     1  UNL1        0.0740
      6 C         138.1656  143.2587  162.1527 C.3     1  UNL1        0.0369
      7 C         138.9614  140.7249  165.1017 C.3     1  UNL1        0.0802
      8 C         138.2035  139.4689  165.4143 C.3     1  UNL1        0.0252
      9 C         138.4268  139.1406  166.8609 C.3     1  UNL1        0.0310
     10 C         139.3227  140.1938  167.4423 C.ar    1  UNL1        0.0123
     11 C         139.6532  141.1730  166.3550 C.ar    1  UNL1       -0.0086
     12 C         140.5412  142.3461  166.6468 C.ar    1  UNL1        0.0000
     13 C         141.0988  142.5400  168.0257 C.ar    1  UNL1        0.0399
     14 C         140.7684  141.5609  169.1129 C.ar    1  UNL1        0.1761
     15 C         139.8803  140.3877  168.8212 C.ar    1  UNL1        0.1721
     16 O         139.7306  139.5940  170.0851 O.3     1  UNL1       -0.4350
     17 C         140.5261  140.2766  171.1580 C.3     1  UNL1        0.4294
     18 O         141.1675  141.4922  170.5572 O.3     1  UNL1       -0.4346
     19 O         141.3131  144.7627  160.5283 O.2     1  UNL1       -0.2668
     20 C         140.2782  144.4623  159.4849 C.2     1  UNL1        0.2806
     21 N         139.1869  143.4744  159.7735 N.am    1  UNL1       -0.2999
     22 H         138.5077  143.2772  159.0887 H       1  UNL1        0.1498
     23 C         140.3346  145.1496  158.1529 C.ar    1  UNL1        0.2014
     24 C         141.1528  144.5637  157.0406 C.ar    1  UNL1        0.0843
     25 C         141.2092  145.2510  155.7085 C.ar    1  UNL1        0.2019
     26 O         142.0273  144.6651  154.5962 O.2     1  UNL1       -0.2864
     27 C         140.4474  146.5244  155.4888 C.ar    1  UNL1        0.0758
     28 C         140.5038  147.2118  154.1568 C.ar    1  UNL1        0.0359
     29 C         139.7420  148.4851  153.9371 C.ar    1  UNL1        0.1404
     30 F         139.7984  149.1725  152.6050 F       1  UNL1       -0.2042
     31 C         138.9238  149.0711  155.0494 C.ar    1  UNL1        0.0328
     32 C         138.8675  148.3837  156.3814 C.ar    1  UNL1        0.0399
     33 C         139.6292  147.1104  156.6011 C.ar    1  UNL1        0.1487
     34 O         139.5729  146.4230  157.9332 O.2     1  UNL1       -0.4487
@<TRIPOS>BOND
     1    19    20    2
     2    20    21   am
     3    21     1    1
     4     1     2    1
     5     2     3    1
     6     3     4    1
     7     4     7    1
     8     7     8    1
     9     8     9    1
    10     9    10    1
    11    10    11   ar
    12    11    12   ar
    13    12    13   ar
    14    13    14   ar
    15    14    15   ar
    16    15    16    1
    17    16    17    1
    18    17    18    1
    19     4     5    1
    20     5     6    1
    21    20    23    1
    22    23    24   ar
    23    24    25   ar
    24    25    26    2
    25    25    27   ar
    26    27    28   ar
    27    28    29   ar
    28    29    30    1
    29    29    31   ar
    30    31    32   ar
    31    32    33   ar
    32    33    34   ar
    33     6     1    1
    34    34    23   ar
    35    11     7    1
    36    18    14    1
    37    33    27   ar
    38    15    10   ar
    39    21    22    1
@<TRIPOS>MOLECULE
*****
 34 39 0 0 0
SMALL
GASTEIGER

@<TRIPOS>ATOM
      1 C         143.0982  137.9695  161.1756 C.3     1  UNL1        0.0747
      2 C         144.2479  138.9221  161.3200 C.3     1  UNL1        0.0369
      3 C         144.2619  139.9159  162.4434 C.3     1  UNL1        0.0740
      4 N         143.1263  139.9572  163.4224 N.3     1  UNL1       -0.2702
      5 C         141.9766  139.0047  163.2781 C.3     1  UNL1        0.0740
      6 C         141.9625  138.0108  162.1546 C.3     1  UNL1        0.0369
      7 C         143.1402  140.9510  164.5458 C.3     1  UNL1        0.0802
      8 C         143.3374  142.4318  164.4106 C.3     1  UNL1        0.0252
      9 C         143.2786  143.0345  165.7830 C.3     1  UNL1        0.0310
     10 C         143.0450  141.9262  166.7664 C.ar    1  UNL1        0.0123
     11 C         142.9595  140.6385  166.0018 C.ar    1  UNL1       -0.0086
     12 C         142.7281  139.3478  166.7301 C.ar    1  UNL1        0.0000
     13 C         142.5822  139.3447  168.2230 C.ar    1  UNL1        0.0399
     14 C         142.6677  140.6324  168.9875 C.ar    1  UNL1        0.1761
     15 C         142.8991  141.9232  168.2592 C.ar    1  UNL1        0.1721
     16 O         142.9374  143.0274  169.2737 O.3     1  UNL1       -0.4350
     17 C         142.7297  142.4191  170.6290 C.3     1  UNL1        0.4294
     18 O         142.5630  140.9389  170.4522 O.3     1  UNL1       -0.4346
     19 O         142.2243  138.8171  158.4338 O.2     1  UNL1       -0.2668
     20 C         142.6472  137.3995  158.6812 C.2     1  UNL1        0.2806
     21 N         143.0842  136.9756  160.0522 N.am    1  UNL1       -0.2999
     22 H         143.3619  136.0451  160.2147 H       1  UNL1        0.1498
     23 C         142.6333  136.4056  157.5579 C.ar    1  UNL1        0.2014
     24 C         141.8670  136.7028  156.3030 C.ar    1  UNL1        0.0843
     25 C         141.8530  135.7090  155.1797 C.ar    1  UNL1        0.2019
     26 O         141.0867  136.0062  153.9249 O.2     1  UNL1       -0.2864
     27 C         142.6053  134.4179  155.3110 C.ar    1  UNL1        0.0758
     28 C         142.5913  133.4240  154.1876 C.ar    1  UNL1        0.0359
     29 C         143.3436  132.1330  154.3191 C.ar    1  UNL1        0.1404
     30 F         143.3296  131.1391  153.1956 F       1  UNL1       -0.2042
     31 C         144.1098  131.8358  155.5739 C.ar    1  UNL1        0.0328
     32 C         144.1238  132.8297  156.6973 C.ar    1  UNL1        0.0399
     33 C         143.3716  134.1207  156.5658 C.ar    1  UNL1        0.1487
     34 O         143.3855  135.1146  157.6893 O.2     1  UNL1       -0.4487
@<TRIPOS>BOND
     1    19    20    2
     2    20    21   am
     3    21     1    1
     4     1     2    1
     5     2     3    1
     6     3     4    1
     7     4     7    1
     8     7     8    1
     9     8     9    1
    10     9    10    1
    11    10    11   ar
    12    11    12   ar
    13    12    13   ar
    14    13    14   ar
    15    14    15   ar
    16    15    16    1
    17    16    17    1
    18    17    18    1
    19     4     5    1
    20     5     6    1
    21    20    23    1
    22    23    24   ar
    23    24    25   ar
    24    25    26    2
    25    25    27   ar
    26    27    28   ar
    27    28    29   ar
    28    29    30    1
    29    29    31   ar
    30    31    32   ar
    31    32    33   ar
    32    33    34   ar
    33     6     1    1
    34    34    23   ar
    35    11     7    1
    36    18    14    1
    37    33    27   ar
    38    15    10   ar
    39    21    22    1
@<TRIPOS>MOLECULE
*****
 34 39 0 0 0
SMALL
GASTEIGER

@<TRIPOS>ATOM
      1 C         141.1677  138.6123  158.5993 C.3     1  UNL1        0.0747
      2 C         142.5258  137.9927  158.4511 C.3     1  UNL1        0.0369
      3 C         142.7616  136.9441  157.4049 C.3     1  UNL1        0.0740
      4 N         141.6395  136.5148  156.5068 N.3     1  UNL1       -0.2702
      5 C         140.2815  137.1343  156.6550 C.3     1  UNL1        0.0740
      6 C         140.0455  138.1831  157.7012 C.3     1  UNL1        0.0369
      7 C         141.8753  135.4662  155.4606 C.3     1  UNL1        0.0802
      8 C         141.3977  135.5153  154.0396 C.3     1  UNL1        0.0252
      9 C         141.8575  134.2636  153.3525 C.3     1  UNL1        0.0310
     10 C         142.6192  133.4409  154.3489 C.ar    1  UNL1        0.0123
     11 C         142.6303  134.1841  155.6519 C.ar    1  UNL1       -0.0086
     12 C         143.3264  133.5974  156.8440 C.ar    1  UNL1        0.0000
     13 C         144.0114  132.2676  156.7333 C.ar    1  UNL1        0.0399
     14 C         144.0003  131.5244  155.4304 C.ar    1  UNL1        0.1761
     15 C         143.3042  132.1111  154.2382 C.ar    1  UNL1        0.1721
     16 O         143.4592  131.1541  153.0935 O.3     1  UNL1       -0.4350
     17 C         144.2510  129.9760  153.5783 C.3     1  UNL1        0.4294
     18 O         144.5855  130.2048  155.0226 O.3     1  UNL1       -0.4346
     19 O         140.6749  137.8063  161.4467 O.2     1  UNL1       -0.2668
     20 C         140.6854  139.2580  161.0692 C.2     1  UNL1        0.2806
     21 N         140.9318  139.6610  159.6455 N.am    1  UNL1       -0.2999
     22 H         140.9387  140.6138  159.3977 H       1  UNL1        0.1498
     23 C         140.4496  140.3067  162.1154 C.ar    1  UNL1        0.2014
     24 C         141.3498  140.3877  163.3125 C.ar    1  UNL1        0.0843
     25 C         141.1140  141.4363  164.3587 C.ar    1  UNL1        0.2019
     26 O         142.0142  141.5173  165.5558 O.2     1  UNL1       -0.2864
     27 C         139.9778  142.4041  164.2078 C.ar    1  UNL1        0.0758
     28 C         139.7420  143.4528  165.2540 C.ar    1  UNL1        0.0359
     29 C         138.6059  144.4205  165.1031 C.ar    1  UNL1        0.1404
     30 F         138.3700  145.4693  166.1494 F       1  UNL1       -0.2042
     31 C         137.7056  144.3395  163.9061 C.ar    1  UNL1        0.0328
     32 C         137.9415  143.2908  162.8599 C.ar    1  UNL1        0.0399
     33 C         139.0776  142.3231  163.0108 C.ar    1  UNL1        0.1487
     34 O         139.3135  141.2744  161.9645 O.2     1  UNL1       -0.4487
@<TRIPOS>BOND
     1    19    20    2
     2    20    21   am
     3    21     1    1
     4     1     2    1
     5     2     3    1
     6     3     4    1
     7     4     7    1
     8     7     8    1
     9     8     9    1
    10     9    10    1
    11    10    11   ar
    12    11    12   ar
    13    12    13   ar
    14    13    14   ar
    15    14    15   ar
    16    15    16    1
    17    16    17    1
    18    17    18    1
    19     4     5    1
    20     5     6    1
    21    20    23    1
    22    23    24   ar
    23    24    25   ar
    24    25    26    2
    25    25    27   ar
    26    27    28   ar
    27    28    29   ar
    28    29    30    1
    29    29    31   ar
    30    31    32   ar
    31    32    33   ar
    32    33    34   ar
    33     6     1    1
    34    34    23   ar
    35    11     7    1
    36    18    14    1
    37    33    27   ar
    38    15    10   ar
    39    21    22    1
@<TRIPOS>MOLECULE
*****
 34 39 0 0 0
SMALL
GASTEIGER

@<TRIPOS>ATOM
      1 C         142.0044  138.6088  161.4139 C.3     1  UNL1        0.0747
      2 C         143.0467  138.1978  162.4113 C.3     1  UNL1        0.0369
      3 C         143.1816  138.9436  163.7057 C.3     1  UNL1        0.0740
      4 N         142.2743  140.1005  164.0028 N.3     1  UNL1       -0.2702
      5 C         141.2320  140.5116  163.0056 C.3     1  UNL1        0.0740
      6 C         141.0970  139.7657  161.7111 C.3     1  UNL1        0.0369
      7 C         142.4092  140.8463  165.2972 C.3     1  UNL1        0.0802
      8 C         143.4937  141.8230  165.6431 C.3     1  UNL1        0.0252
      9 C         143.2380  142.3267  167.0328 C.3     1  UNL1        0.0310
     10 C         141.9954  141.6612  167.5457 C.ar    1  UNL1        0.0123
     11 C         141.4831  140.7462  166.4731 C.ar    1  UNL1       -0.0086
     12 C         140.2397  139.9403  166.7057 C.ar    1  UNL1        0.0000
     13 C         139.5084  140.0492  168.0108 C.ar    1  UNL1        0.0399
     14 C         140.0207  140.9641  169.0834 C.ar    1  UNL1        0.1761
     15 C         141.2642  141.7702  168.8508 C.ar    1  UNL1        0.1721
     16 O         141.5282  142.5815  170.0846 O.3     1  UNL1       -0.4350
     17 C         140.4479  142.2768  171.0796 C.3     1  UNL1        0.4294
     18 O         139.5162  141.2773  170.4609 O.3     1  UNL1       -0.4346
     19 O         143.9232  139.1400  159.1697 O.2     1  UNL1       -0.2668
     20 C         142.8289  138.1286  158.9974 C.2     1  UNL1        0.2806
     21 N         141.8695  137.8630  160.1195 N.am    1  UNL1       -0.2999
     22 H         141.1513  137.1992  160.0064 H       1  UNL1        0.1498
     23 C         142.6940  137.3828  157.7030 C.ar    1  UNL1        0.2014
     24 C         142.3534  138.1224  156.4432 C.ar    1  UNL1        0.0843
     25 C         142.2185  137.3766  155.1488 C.ar    1  UNL1        0.2019
     26 O         141.8779  138.1162  153.8891 O.2     1  UNL1       -0.2864
     27 C         142.4242  135.8911  155.1141 C.ar    1  UNL1        0.0758
     28 C         142.2893  135.1453  153.8197 C.ar    1  UNL1        0.0359
     29 C         142.4950  133.6599  153.7851 C.ar    1  UNL1        0.1404
     30 F         142.3601  132.9140  152.4906 F       1  UNL1       -0.2042
     31 C         142.8356  132.9203  155.0449 C.ar    1  UNL1        0.0328
     32 C         142.9705  133.6661  156.3393 C.ar    1  UNL1        0.0399
     33 C         142.7648  135.1515  156.3739 C.ar    1  UNL1        0.1487
     34 O         142.8997  135.8974  157.6684 O.2     1  UNL1       -0.4487
@<TRIPOS>BOND
     1    19    20    2
     2    20    21   am
     3    21     1    1
     4     1     2    1
     5     2     3    1
     6     3     4    1
     7     4     7    1
     8     7     8    1
     9     8     9    1
    10     9    10    1
    11    10    11   ar
    12    11    12   ar
    13    12    13   ar
    14    13    14   ar
    15    14    15   ar
    16    15    16    1
    17    16    17    1
    18    17    18    1
    19     4     5    1
    20     5     6    1
    21    20    23    1
    22    23    24   ar
    23    24    25   ar
    24    25    26    2
    25    25    27   ar
    26    27    28   ar
    27    28    29   ar
    28    29    30    1
    29    29    31   ar
    30    31    32   ar
    31    32    33   ar
    32    33    34   ar
    33     6     1    1
    34    34    23   ar
    35    11     7    1
    36    18    14    1
    37    33    27   ar
    38    15    10   ar
    39    21    22    1
@<TRIPOS>MOLECULE
*****
 34 39 0 0 0
SMALL
GASTEIGER

@<TRIPOS>ATOM
      1 C         141.2590  138.7447  159.3910 C.3     1  UNL1        0.0747
      2 C         140.0340  138.4941  158.5624 C.3     1  UNL1        0.0369
      3 C         140.1216  137.6374  157.3343 C.3     1  UNL1        0.0740
      4 N         141.4342  137.0311  156.9348 N.3     1  UNL1       -0.2702
      5 C         142.6591  137.2817  157.7634 C.3     1  UNL1        0.0740
      6 C         142.5716  138.1385  158.9915 C.3     1  UNL1        0.0369
      7 C         141.5217  136.1744  155.7067 C.3     1  UNL1        0.0802
      8 C         140.9690  136.5131  154.3541 C.3     1  UNL1        0.0252
      9 C         141.2831  135.3764  153.4270 C.3     1  UNL1        0.0310
     10 C         142.0300  134.3352  154.2067 C.ar    1  UNL1        0.0123
     11 C         142.1776  134.8283  155.6157 C.ar    1  UNL1       -0.0086
     12 C         142.8899  133.9880  156.6336 C.ar    1  UNL1        0.0000
     13 C         143.4548  132.6545  156.2427 C.ar    1  UNL1        0.0399
     14 C         143.3073  132.1614  154.8338 C.ar    1  UNL1        0.1761
     15 C         142.5949  133.0018  153.8158 C.ar    1  UNL1        0.1721
     16 O         142.6039  132.2585  152.5129 O.3     1  UNL1       -0.4350
     17 C         143.3219  130.9588  152.7257 C.3     1  UNL1        0.4294
     18 O         143.7566  130.8988  154.1601 O.3     1  UNL1       -0.4346
     19 O         140.3759  137.5467  161.9959 O.2     1  UNL1       -0.2668
     20 C         140.7299  139.0025  161.9216 C.2     1  UNL1        0.2806
     21 N         141.1714  139.6015  160.6191 N.am    1  UNL1       -0.2999
     22 H         141.4038  140.5569  160.5703 H       1  UNL1        0.1498
     23 C         140.6423  139.8593  163.1497 C.ar    1  UNL1        0.2014
     24 C         139.4440  140.7343  163.3698 C.ar    1  UNL1        0.0843
     25 C         139.3564  141.5911  164.5979 C.ar    1  UNL1        0.2019
     26 O         138.1582  142.4661  164.8180 O.2     1  UNL1       -0.2864
     27 C         140.4672  141.5728  165.6059 C.ar    1  UNL1        0.0758
     28 C         140.3796  142.4296  166.8340 C.ar    1  UNL1        0.0359
     29 C         141.4903  142.4113  167.8419 C.ar    1  UNL1        0.1404
     30 F         141.4027  143.2681  169.0701 F       1  UNL1       -0.2042
     31 C         142.6885  141.5362  167.6218 C.ar    1  UNL1        0.0328
     32 C         142.7761  140.6795  166.3937 C.ar    1  UNL1        0.0399
     33 C         141.6654  140.6978  165.3858 C.ar    1  UNL1        0.1487
     34 O         141.7530  139.8410  164.1576 O.2     1  UNL1       -0.4487
@<TRIPOS>BOND
     1    19    20    2
     2    20    21   am
     3    21     1    1
     4     1     2    1
     5     2     3    1
     6     3     4    1
     7     4     7    1
     8     7     8    1
     9     8     9    1
    10     9    10    1
    11    10    11   ar
    12    11    12   ar
    13    12    13   ar
    14    13    14   ar
    15    14    15   ar
    16    15    16    1
    17    16    17    1
    18    17    18    1
    19     4     5    1
    20     5     6    1
    21    20    23    1
    22    23    24   ar
    23    24    25   ar
    24    25    26    2
    25    25    27   ar
    26    27    28   ar
    27    28    29   ar
    28    29    30    1
    29    29    31   ar
    30    31    32   ar
    31    32    33   ar
    32    33    34   ar
    33     6     1    1
    34    34    23   ar
    35    11     7    1
    36    18    14    1
    37    33    27   ar
    38    15    10   ar
    39    21    22    1
@<TRIPOS>MOLECULE
*****
 34 39 0 0 0
SMALL
GASTEIGER

@<TRIPOS>ATOM
      1 C         142.3763  142.3445  160.5291 C.3     1  UNL1        0.0747
      2 C         143.5089  142.6442  161.4659 C.3     1  UNL1        0.0369
      3 C         143.6483  141.8732  162.7450 C.3     1  UNL1        0.0740
      4 N         142.6552  140.8024  163.0873 N.3     1  UNL1       -0.2702
      5 C         141.5227  140.5027  162.1505 C.3     1  UNL1        0.0740
      6 C         141.3832  141.2737  160.8714 C.3     1  UNL1        0.0369
      7 C         142.7946  140.0313  164.3663 C.3     1  UNL1        0.0802
      8 C         143.1441  138.5776  164.4858 C.3     1  UNL1        0.0252
      9 C         143.1745  138.2265  165.9439 C.3     1  UNL1        0.0310
     10 C         142.8438  139.4632  166.7255 C.ar    1  UNL1        0.0123
     11 C         142.6089  140.5788  165.7506 C.ar    1  UNL1       -0.0086
     12 C         142.2564  141.9488  166.2491 C.ar    1  UNL1        0.0000
     13 C         142.1387  142.2034  167.7227 C.ar    1  UNL1        0.0399
     14 C         142.3735  141.0879  168.6976 C.ar    1  UNL1        0.1761
     15 C         142.7260  139.7178  168.1990 C.ar    1  UNL1        0.1721
     16 O         142.8992  138.8217  169.3894 O.3     1  UNL1       -0.4350
     17 C         142.6538  139.6380  170.6236 C.3     1  UNL1        0.4294
     18 O         142.3288  141.0386  170.1961 O.3     1  UNL1       -0.4346
     19 O         140.2969  144.4939  160.2924 O.2     1  UNL1       -0.2668
     20 C         141.1972  144.1903  159.1317 C.2     1  UNL1        0.2806
     21 N         142.2369  143.1156  159.2501 N.am    1  UNL1       -0.2999
     22 H         142.8278  142.9163  158.4883 H       1  UNL1        0.1498
     23 C         141.0578  144.9614  157.8527 C.ar    1  UNL1        0.2014
     24 C         141.9208  144.6212  156.6739 C.ar    1  UNL1        0.0843
     25 C         141.7814  145.3922  155.3949 C.ar    1  UNL1        0.2019
     26 O         142.6445  145.0521  154.2162 O.2     1  UNL1       -0.2864
     27 C         140.7789  146.5036  155.2945 C.ar    1  UNL1        0.0758
     28 C         140.6395  147.2746  154.0155 C.ar    1  UNL1        0.0359
     29 C         139.6370  148.3859  153.9152 C.ar    1  UNL1        0.1404
     30 F         139.4976  149.1570  152.6361 F       1  UNL1       -0.2042
     31 C         138.7739  148.7261  155.0939 C.ar    1  UNL1        0.0328
     32 C         138.9134  147.9550  156.3729 C.ar    1  UNL1        0.0399
     33 C         139.9158  146.8438  156.4732 C.ar    1  UNL1        0.1487
     34 O         140.0553  146.0726  157.7523 O.2     1  UNL1       -0.4487
@<TRIPOS>BOND
     1    19    20    2
     2    20    21   am
     3    21     1    1
     4     1     2    1
     5     2     3    1
     6     3     4    1
     7     4     7    1
     8     7     8    1
     9     8     9    1
    10     9    10    1
    11    10    11   ar
    12    11    12   ar
    13    12    13   ar
    14    13    14   ar
    15    14    15   ar
    16    15    16    1
    17    16    17    1
    18    17    18    1
    19     4     5    1
    20     5     6    1
    21    20    23    1
    22    23    24   ar
    23    24    25   ar
    24    25    26    2
    25    25    27   ar
    26    27    28   ar
    27    28    29   ar
    28    29    30    1
    29    29    31   ar
    30    31    32   ar
    31    32    33   ar
    32    33    34   ar
    33     6     1    1
    34    34    23   ar
    35    11     7    1
    36    18    14    1
    37    33    27   ar
    38    15    10   ar
    39    21    22    1
@<TRIPOS>MOLECULE
*****
 34 39 0 0 0
SMALL
GASTEIGER

@<TRIPOS>ATOM
      1 C         141.7026  140.5965  160.7350 C.3     1  UNL1        0.0747
      2 C         141.8589  141.6344  161.8066 C.3     1  UNL1        0.0369
      3 C         141.2398  141.4187  163.1557 C.3     1  UNL1        0.0740
      4 N         140.4643  140.1651  163.4333 N.3     1  UNL1       -0.2702
      5 C         140.3080  139.1271  162.3617 C.3     1  UNL1        0.0740
      6 C         140.9272  139.3428  161.0126 C.3     1  UNL1        0.0369
      7 C         139.8452  139.9494  164.7823 C.3     1  UNL1        0.0802
      8 C         138.4521  139.4593  165.0449 C.3     1  UNL1        0.0252
      9 C         138.2564  139.3929  166.5307 C.3     1  UNL1        0.0310
     10 C         139.5285  139.8420  167.1863 C.ar    1  UNL1        0.0123
     11 C         140.5106  140.1859  166.1058 C.ar    1  UNL1       -0.0086
     12 C         141.8836  140.6700  166.4666 C.ar    1  UNL1        0.0000
     13 C         142.2748  140.8102  167.9079 C.ar    1  UNL1        0.0399
     14 C         141.2928  140.4663  168.9884 C.ar    1  UNL1        0.1761
     15 C         139.9197  139.9822  168.6276 C.ar    1  UNL1        0.1721
     16 O         139.1710  139.7207  169.9008 O.3     1  UNL1       -0.4350
     17 C         140.0813  140.0432  171.0485 C.3     1  UNL1        0.4294
     18 O         141.3927  140.5040  170.4846 O.3     1  UNL1       -0.4346
     19 O         144.2135  139.1355  159.9860 O.2     1  UNL1       -0.2668
     20 C         143.5772  140.0817  159.0114 C.2     1  UNL1        0.2806
     21 N         142.3218  140.8122  159.3859 N.am    1  UNL1       -0.2999
     22 H         141.9041  141.4332  158.7463 H       1  UNL1        0.1498
     23 C         144.1964  140.2974  157.6623 C.ar    1  UNL1        0.2014
     24 C         143.6477  139.5836  156.4625 C.ar    1  UNL1        0.0843
     25 C         144.2669  139.7993  155.1134 C.ar    1  UNL1        0.2019
     26 O         143.7182  139.0856  153.9136 O.2     1  UNL1       -0.2864
     27 C         145.4347  140.7289  154.9641 C.ar    1  UNL1        0.0758
     28 C         146.0539  140.9446  153.6150 C.ar    1  UNL1        0.0359
     29 C         147.2217  141.8740  153.4657 C.ar    1  UNL1        0.1404
     30 F         147.8409  142.0898  152.1166 F       1  UNL1       -0.2042
     31 C         147.7703  142.5878  154.6655 C.ar    1  UNL1        0.0328
     32 C         147.1512  142.3721  156.0146 C.ar    1  UNL1        0.0399
     33 C         145.9834  141.4426  156.1639 C.ar    1  UNL1        0.1487
     34 O         145.3642  141.2268  157.5130 O.2     1  UNL1       -0.4487
@<TRIPOS>BOND
     1    19    20    2
     2    20    21   am
     3    21     1    1
     4     1     2    1
     5     2     3    1
     6     3     4    1
     7     4     7    1
     8     7     8    1
     9     8     9    1
    10     9    10    1
    11    10    11   ar
    12    11    12   ar
    13    12    13   ar
    14    13    14   ar
    15    14    15   ar
    16    15    16    1
    17    16    17    1
    18    17    18    1
    19     4     5    1
    20     5     6    1
    21    20    23    1
    22    23    24   ar
    23    24    25   ar
    24    25    26    2
    25    25    27   ar
    26    27    28   ar
    27    28    29   ar
    28    29    30    1
    29    29    31   ar
    30    31    32   ar
    31    32    33   ar
    32    33    34   ar
    33     6     1    1
    34    34    23   ar
    35    11     7    1
    36    18    14    1
    37    33    27   ar
    38    15    10   ar
    39    21    22    1
@<TRIPOS>MOLECULE
*****
 34 39 0 0 0
SMALL
GASTEIGER

@<TRIPOS>ATOM
      1 C         139.5997  141.0177  161.0702 C.3     1  UNL1        0.0747
      2 C         138.8192  140.3994  162.1921 C.3     1  UNL1        0.0369
      3 C         139.5167  139.9943  163.4568 C.3     1  UNL1        0.0740
      4 N         140.9946  140.2074  163.5995 N.3     1  UNL1       -0.2702
      5 C         141.7750  140.8256  162.4777 C.3     1  UNL1        0.0740
      6 C         141.0776  141.2308  161.2130 C.3     1  UNL1        0.0369
      7 C         141.6920  139.8022  164.8642 C.3     1  UNL1        0.0802
      8 C         142.7428  138.7393  164.9899 C.3     1  UNL1        0.0252
      9 C         143.1613  138.6690  166.4287 C.3     1  UNL1        0.0310
     10 C         142.3692  139.6886  167.1922 C.ar    1  UNL1        0.0123
     11 C         141.4611  140.3891  166.2253 C.ar    1  UNL1       -0.0086
     12 C         140.5413  141.4706  166.7091 C.ar    1  UNL1        0.0000
     13 C         140.5295  141.8517  168.1598 C.ar    1  UNL1        0.0399
     14 C         141.4376  141.1514  169.1267 C.ar    1  UNL1        0.1761
     15 C         142.3575  140.0698  168.6429 C.ar    1  UNL1        0.1721
     16 O         143.1339  139.5603  169.8208 O.3     1  UNL1       -0.4350
     17 C         142.6939  140.3270  171.0326 C.3     1  UNL1        0.4294
     18 O         141.6456  141.3103  170.6037 O.3     1  UNL1       -0.4346
     19 O         138.9633  138.9593  158.9826 O.2     1  UNL1       -0.2668
     20 C         138.5840  140.3936  158.7617 C.2     1  UNL1        0.2806
     21 N         138.9022  141.4229  159.8055 N.am    1  UNL1       -0.2999
     22 H         138.6533  142.3643  159.6606 H       1  UNL1        0.1498
     23 C         137.8865  140.7988  157.4971 C.ar    1  UNL1        0.2014
     24 C         138.6494  141.4966  156.4103 C.ar    1  UNL1        0.0843
     25 C         137.9520  141.9017  155.1456 C.ar    1  UNL1        0.2019
     26 O         138.7149  142.5995  154.0589 O.2     1  UNL1       -0.2864
     27 C         136.4915  141.6091  154.9677 C.ar    1  UNL1        0.0758
     28 C         135.7941  142.0142  153.7031 C.ar    1  UNL1        0.0359
     29 C         134.3337  141.7216  153.5252 C.ar    1  UNL1        0.1404
     30 F         133.6362  142.1268  152.2605 F       1  UNL1       -0.2042
     31 C         133.5708  141.0238  154.6120 C.ar    1  UNL1        0.0328
     32 C         134.2683  140.6187  155.8766 C.ar    1  UNL1        0.0399
     33 C         135.7286  140.9113  156.0545 C.ar    1  UNL1        0.1487
     34 O         136.4262  140.5062  157.3192 O.2     1  UNL1       -0.4487
@<TRIPOS>BOND
     1    19    20    2
     2    20    21   am
     3    21     1    1
     4     1     2    1
     5     2     3    1
     6     3     4    1
     7     4     7    1
     8     7     8    1
     9     8     9    1
    10     9    10    1
    11    10    11   ar
    12    11    12   ar
    13    12    13   ar
    14    13    14   ar
    15    14    15   ar
    16    15    16    1
    17    16    17    1
    18    17    18    1
    19     4     5    1
    20     5     6    1
    21    20    23    1
    22    23    24   ar
    23    24    25   ar
    24    25    26    2
    25    25    27   ar
    26    27    28   ar
    27    28    29   ar
    28    29    30    1
    29    29    31   ar
    30    31    32   ar
    31    32    33   ar
    32    33    34   ar
    33     6     1    1
    34    34    23   ar
    35    11     7    1
    36    18    14    1
    37    33    27   ar
    38    15    10   ar
    39    21    22    1
@<TRIPOS>MOLECULE
*****
 34 39 0 0 0
SMALL
GASTEIGER

@<TRIPOS>ATOM
      1 C         139.7212  143.4113  157.5927 C.3     1  UNL1        0.0747
      2 C         140.9819  143.0120  158.3009 C.3     1  UNL1        0.0369
      3 C         140.9541  141.9092  159.3172 C.3     1  UNL1        0.0740
      4 N         139.6657  141.2056  159.6254 N.3     1  UNL1       -0.2702
      5 C         138.4051  141.6048  158.9173 C.3     1  UNL1        0.0740
      6 C         138.4329  142.7077  157.9009 C.3     1  UNL1        0.0369
      7 C         139.6379  140.1028  160.6417 C.3     1  UNL1        0.0802
      8 C         140.1781  138.7163  160.4532 C.3     1  UNL1        0.0252
      9 C         139.9391  137.9494  161.7201 C.3     1  UNL1        0.0310
     10 C         139.2512  138.8620  162.6916 C.ar    1  UNL1        0.0123
     11 C         139.0650  140.1930  162.0252 C.ar    1  UNL1       -0.0086
     12 C         138.3980  141.3149  162.7641 C.ar    1  UNL1        0.0000
     13 C         137.9171  141.1061  164.1695 C.ar    1  UNL1        0.0399
     14 C         138.1032  139.7752  164.8359 C.ar    1  UNL1        0.1761
     15 C         138.7703  138.6532  164.0970 C.ar    1  UNL1        0.1721
     16 O         138.8146  137.4610  165.0062 O.3     1  UNL1       -0.4350
     17 C         138.1748  137.8462  166.3071 C.3     1  UNL1        0.4294
     18 O         137.7352  139.2765  166.2019 O.3     1  UNL1       -0.4346
     19 O         139.6010  146.2740  158.4819 O.2     1  UNL1       -0.2668
     20 C         139.6889  145.9455  157.0210 C.2     1  UNL1        0.2806
     21 N         139.7490  144.5141  156.5764 N.am    1  UNL1       -0.2999
     22 H         139.8067  144.2985  155.6175 H       1  UNL1        0.1498
     23 C         139.7167  147.0483  156.0047 C.ar    1  UNL1        0.2014
     24 C         140.3833  146.8298  154.6788 C.ar    1  UNL1        0.0843
     25 C         140.4111  147.9326  153.6625 C.ar    1  UNL1        0.2019
     26 O         141.0776  147.7141  152.3366 O.2     1  UNL1       -0.2864
     27 C         139.7722  149.2541  153.9720 C.ar    1  UNL1        0.0758
     28 C         139.8000  150.3569  152.9557 C.ar    1  UNL1        0.0359
     29 C         139.1612  151.6783  153.2652 C.ar    1  UNL1        0.1404
     30 F         139.1890  152.7812  152.2489 F       1  UNL1       -0.2042
     31 C         138.4946  151.8968  154.5911 C.ar    1  UNL1        0.0328
     32 C         138.4668  150.7940  155.6074 C.ar    1  UNL1        0.0399
     33 C         139.1056  149.4726  155.2979 C.ar    1  UNL1        0.1487
     34 O         139.0779  148.3697  156.3142 O.2     1  UNL1       -0.4487
@<TRIPOS>BOND
     1    19    20    2
     2    20    21   am
     3    21     1    1
     4     1     2    1
     5     2     3    1
     6     3     4    1
     7     4     7    1
     8     7     8    1
     9     8     9    1
    10     9    10    1
    11    10    11   ar
    12    11    12   ar
    13    12    13   ar
    14    13    14   ar
    15    14    15   ar
    16    15    16    1
    17    16    17    1
    18    17    18    1
    19     4     5    1
    20     5     6    1
    21    20    23    1
    22    23    24   ar
    23    24    25   ar
    24    25    26    2
    25    25    27   ar
    26    27    28   ar
    27    28    29   ar
    28    29    30    1
    29    29    31   ar
    30    31    32   ar
    31    32    33   ar
    32    33    34   ar
    33     6     1    1
    34    34    23   ar
    35    11     7    1
    36    18    14    1
    37    33    27   ar
    38    15    10   ar
    39    21    22    1
