@<TRIPOS>MOLECULE
*****
 27 29 0 0 0
SMALL
GASTEIGER

@<TRIPOS>ATOM
      1 C         140.1431  143.7046  159.0288 C.ar    1  UNL1        0.2302
      2 C         141.3792  144.2633  159.6691 C.ar    1  UNL1        0.0922
      3 C         141.3998  144.5424  161.1427 C.ar    1  UNL1        0.1412
      4 N         140.1845  144.2627  161.9761 N.ar    1  UNL1       -0.1985
      5 C         138.9484  143.7040  161.3359 C.ar    1  UNL1        0.2208
      6 N         138.9278  143.4249  159.8622 N.ar    1  UNL1       -0.1788
      7 C         138.8199  143.1608  156.8601 C.3     1  UNL1        0.2542
      8 O         140.1225  143.4255  157.5551 O.3     1  UNL1       -0.4560
      9 N         142.6360  145.1012  161.7830 N.pl3   1  UNL1       -0.2780
     10 H         142.9362  146.0122  161.5615 H       1  UNL1        0.1555
     11 C         143.4146  144.2718  162.7607 C.ar    1  UNL1        0.1643
     12 N         143.4669  144.4768  164.2457 N.ar    1  UNL1       -0.2228
     13 C         144.3622  143.4235  164.8278 C.ar    1  UNL1        0.1030
     14 C         144.8633  142.5674  163.7026 C.ar    1  UNL1        0.0293
     15 C         145.7877  141.3933  163.8321 C.3     1  UNL1        0.0399
     16 S         144.2776  143.0917  162.4250 S.2     1  UNL1       -0.0557
     17 N         137.7330  143.4243  162.1693 N.pl3   1  UNL1       -0.2980
     18 H         136.8350  143.5156  161.7762 H       1  UNL1        0.1500
     19 C         137.8858  143.0056  163.6015 C.3     1  UNL1        0.1306
     20 C         137.7721  144.0241  164.6969 C.3     1  UNL1        0.0295
     21 C         138.1522  141.5684  163.9384 C.ar    1  UNL1        0.1570
     22 N         138.0503  140.5171  162.8734 N.ar    1  UNL1       -0.2251
     23 C         138.3168  139.0799  163.2102 C.ar    1  UNL1        0.1314
     24 C         138.6852  138.6940  164.6121 C.ar    1  UNL1        0.1783
     25 F         138.9517  137.2568  164.9490 F       1  UNL1       -0.2009
     26 C         138.7872  139.7454  165.6772 C.ar    1  UNL1        0.1314
     27 N         138.5207  141.1826  165.3403 N.ar    1  UNL1       -0.2251
@<TRIPOS>BOND
     1     7     8    1
     2     8     1    1
     3     1     2   ar
     4     2     3   ar
     5     3     9    1
     6     9    11    1
     7    11    12   ar
     8    12    13   ar
     9    13    14   ar
    10    14    15    1
    11    14    16   ar
    12     3     4   ar
    13     4     5   ar
    14     5    17    1
    15    17    19    1
    16    19    20    1
    17    19    21    1
    18    21    22   ar
    19    22    23   ar
    20    23    24   ar
    21    24    25    1
    22    24    26   ar
    23    26    27   ar
    24     5     6   ar
    25     6     1   ar
    26    16    11   ar
    27    27    21   ar
    28     9    10    1
    29    17    18    1
@<TRIPOS>MOLECULE
*****
 27 29 0 0 0
SMALL
GASTEIGER

@<TRIPOS>ATOM
      1 C         139.1950  139.1266  159.2208 C.ar    1  UNL1        0.2302
      2 C         138.1950  139.8829  160.0442 C.ar    1  UNL1        0.0922
      3 C         138.3084  139.8920  161.5399 C.ar    1  UNL1        0.1412
      4 N         139.4218  139.1449  162.2122 N.ar    1  UNL1       -0.1985
      5 C         140.4218  138.3886  161.3888 C.ar    1  UNL1        0.2208
      6 N         140.3084  138.3795  159.8931 N.ar    1  UNL1       -0.1788
      7 C         138.5069  140.3037  157.0093 C.3     1  UNL1        0.2542
      8 O         139.0816  139.1175  157.7251 O.3     1  UNL1       -0.4560
      9 N         137.3083  140.6484  162.3632 N.pl3   1  UNL1       -0.2780
     10 H         136.4497  140.2299  162.6015 H       1  UNL1        0.1555
     11 C         137.6166  142.0423  162.8235 C.ar    1  UNL1        0.1643
     12 N         137.7106  143.2585  161.9506 N.ar    1  UNL1       -0.2228
     13 C         138.0371  144.4327  162.8251 C.ar    1  UNL1        0.1030
     14 C         138.1448  143.9422  164.2386 C.ar    1  UNL1        0.0293
     15 C         138.4576  144.7815  165.4417 C.3     1  UNL1        0.0399
     16 S         137.8850  142.4648  164.2375 S.2     1  UNL1       -0.0557
     17 N         141.5353  137.6414  162.0611 N.pl3   1  UNL1       -0.2980
     18 H         142.0349  136.9524  161.5662 H       1  UNL1        0.1500
     19 C         141.8877  137.9441  163.4873 C.3     1  UNL1        0.1306
     20 C         141.3733  137.0662  164.5895 C.3     1  UNL1        0.0295
     21 C         142.7544  139.1247  163.8115 C.ar    1  UNL1        0.1570
     22 N         142.1509  140.3509  164.4296 N.ar    1  UNL1       -0.2251
     23 C         143.0176  141.5315  164.7537 C.ar    1  UNL1        0.1314
     24 C         144.4878  141.4858  164.4598 C.ar    1  UNL1        0.1783
     25 F         145.3545  142.6664  164.7839 F       1  UNL1       -0.2009
     26 C         145.0913  140.2595  163.8416 C.ar    1  UNL1        0.1314
     27 N         144.2246  139.0790  163.5175 N.ar    1  UNL1       -0.2251
@<TRIPOS>BOND
     1     7     8    1
     2     8     1    1
     3     1     2   ar
     4     2     3   ar
     5     3     9    1
     6     9    11    1
     7    11    12   ar
     8    12    13   ar
     9    13    14   ar
    10    14    15    1
    11    14    16   ar
    12     3     4   ar
    13     4     5   ar
    14     5    17    1
    15    17    19    1
    16    19    20    1
    17    19    21    1
    18    21    22   ar
    19    22    23   ar
    20    23    24   ar
    21    24    25    1
    22    24    26   ar
    23    26    27   ar
    24     5     6   ar
    25     6     1   ar
    26    16    11   ar
    27    27    21   ar
    28     9    10    1
    29    17    18    1
@<TRIPOS>MOLECULE
*****
 27 29 0 0 0
SMALL
GASTEIGER

@<TRIPOS>ATOM
      1 C         137.6449  140.3282  161.6698 C.ar    1  UNL1        0.2302
      2 C         138.0379  139.3474  162.7344 C.ar    1  UNL1        0.0922
      3 C         138.3165  139.8254  164.1287 C.ar    1  UNL1        0.1412
      4 N         138.2022  141.2842  164.4583 N.ar    1  UNL1       -0.1985
      5 C         137.8092  142.2650  163.3936 C.ar    1  UNL1        0.2208
      6 N         137.5306  141.7870  161.9994 N.ar    1  UNL1       -0.1788
      7 C         138.4543  139.8734  159.2433 C.3     1  UNL1        0.2542
      8 O         137.3663  139.8502  160.2756 O.3     1  UNL1       -0.4560
      9 N         138.7095  138.8444  165.1933 N.pl3   1  UNL1       -0.2780
     10 H         138.4767  137.8928  165.0960 H       1  UNL1        0.1555
     11 C         139.4571  139.3135  166.4062 C.ar    1  UNL1        0.1643
     12 N         138.8803  139.5071  167.7773 N.ar    1  UNL1       -0.2228
     13 C         139.9794  139.9845  168.6794 C.ar    1  UNL1        0.1030
     14 C         141.2356  140.0860  167.8659 C.ar    1  UNL1        0.0293
     15 C         142.5788  140.5251  168.3690 C.3     1  UNL1        0.0399
     16 S         140.9127  139.6713  166.4610 S.2     1  UNL1       -0.0557
     17 N         137.6949  143.7240  163.7232 N.pl3   1  UNL1       -0.2980
     18 H         136.9078  144.2355  163.4263 H       1  UNL1        0.1500
     19 C         138.7798  144.4035  164.5050 C.3     1  UNL1        0.1306
     20 C         138.4523  145.1013  165.7919 C.3     1  UNL1        0.0295
     21 C         140.1921  144.3853  164.0000 C.ar    1  UNL1        0.1570
     22 N         140.5147  144.9627  162.6538 N.ar    1  UNL1       -0.2251
     23 C         141.9271  144.9445  162.1488 C.ar    1  UNL1        0.1314
     24 C         143.0167  144.3490  162.9901 C.ar    1  UNL1        0.1783
     25 F         144.4291  144.3308  162.4851 F       1  UNL1       -0.2009
     26 C         142.6941  143.7715  164.3364 C.ar    1  UNL1        0.1314
     27 N         141.2818  143.7897  164.8414 N.ar    1  UNL1       -0.2251
@<TRIPOS>BOND
     1     7     8    1
     2     8     1    1
     3     1     2   ar
     4     2     3   ar
     5     3     9    1
     6     9    11    1
     7    11    12   ar
     8    12    13   ar
     9    13    14   ar
    10    14    15    1
    11    14    16   ar
    12     3     4   ar
    13     4     5   ar
    14     5    17    1
    15    17    19    1
    16    19    20    1
    17    19    21    1
    18    21    22   ar
    19    22    23   ar
    20    23    24   ar
    21    24    25    1
    22    24    26   ar
    23    26    27   ar
    24     5     6   ar
    25     6     1   ar
    26    16    11   ar
    27    27    21   ar
    28     9    10    1
    29    17    18    1
@<TRIPOS>MOLECULE
*****
 27 29 0 0 0
SMALL
GASTEIGER

@<TRIPOS>ATOM
      1 C         143.0826  138.8347  163.9442 C.ar    1  UNL1        0.2302
      2 C         143.5010  139.1184  165.3565 C.ar    1  UNL1        0.0922
      3 C         142.4780  139.1325  166.4534 C.ar    1  UNL1        0.1412
      4 N         141.0365  138.8629  166.1381 N.ar    1  UNL1       -0.1985
      5 C         140.6181  138.5792  164.7259 C.ar    1  UNL1        0.2208
      6 N         141.6411  138.5651  163.6289 N.ar    1  UNL1       -0.1788
      7 C         144.4247  140.0833  162.1031 C.3     1  UNL1        0.2542
      8 O         144.1056  138.8206  162.8473 O.3     1  UNL1       -0.4560
      9 N         142.8965  139.4161  167.8657 N.pl3   1  UNL1       -0.2780
     10 H         143.7189  139.0123  168.2259 H       1  UNL1        0.1555
     11 C         142.0619  140.3150  168.7290 C.ar    1  UNL1        0.1643
     12 N         141.2559  139.8927  169.9215 N.ar    1  UNL1       -0.2228
     13 C         140.5826  141.1107  170.4810 C.ar    1  UNL1        0.1030
     14 C         140.9724  142.2859  169.6342 C.ar    1  UNL1        0.0293
     15 C         140.5264  143.7039  169.8350 C.3     1  UNL1        0.0399
     16 S         141.8867  141.7941  168.5515 S.2     1  UNL1       -0.0557
     17 N         139.1766  138.3096  164.4105 N.pl3   1  UNL1       -0.2980
     18 H         138.6399  137.7408  165.0086 H       1  UNL1        0.1500
     19 C         138.5528  138.9066  163.1839 C.3     1  UNL1        0.1306
     20 C         138.1978  138.0292  162.0202 C.3     1  UNL1        0.0295
     21 C         138.2840  140.3810  163.1210 C.ar    1  UNL1        0.1570
     22 N         138.2549  141.0822  161.7954 N.ar    1  UNL1       -0.2251
     23 C         137.9861  142.5565  161.7325 C.ar    1  UNL1        0.1314
     24 C         137.7465  143.3297  162.9952 C.ar    1  UNL1        0.1783
     25 F         137.4777  144.8041  162.9323 F       1  UNL1       -0.2009
     26 C         137.7756  142.6286  164.3210 C.ar    1  UNL1        0.1314
     27 N         138.0443  141.1542  164.3839 N.ar    1  UNL1       -0.2251
@<TRIPOS>BOND
     1     7     8    1
     2     8     1    1
     3     1     2   ar
     4     2     3   ar
     5     3     9    1
     6     9    11    1
     7    11    12   ar
     8    12    13   ar
     9    13    14   ar
    10    14    15    1
    11    14    16   ar
    12     3     4   ar
    13     4     5   ar
    14     5    17    1
    15    17    19    1
    16    19    20    1
    17    19    21    1
    18    21    22   ar
    19    22    23   ar
    20    23    24   ar
    21    24    25    1
    22    24    26   ar
    23    26    27   ar
    24     5     6   ar
    25     6     1   ar
    26    16    11   ar
    27    27    21   ar
    28     9    10    1
    29    17    18    1
@<TRIPOS>MOLECULE
*****
 27 29 0 0 0
SMALL
GASTEIGER

@<TRIPOS>ATOM
      1 C         138.5652  144.6120  162.9837 C.ar    1  UNL1        0.2302
      2 C         139.2383  144.6487  164.3236 C.ar    1  UNL1        0.0922
      3 C         139.1934  143.4459  165.2187 C.ar    1  UNL1        0.1412
      4 N         138.4754  142.2063  164.7738 N.ar    1  UNL1       -0.1985
      5 C         137.8023  142.1696  163.4339 C.ar    1  UNL1        0.2208
      6 N         137.8472  143.3724  162.5388 N.ar    1  UNL1       -0.1788
      7 C         139.8663  146.1449  161.3382 C.3     1  UNL1        0.2542
      8 O         138.6101  145.8148  162.0886 O.3     1  UNL1       -0.4560
      9 N         139.8666  143.4826  166.5587 N.pl3   1  UNL1       -0.2780
     10 H         139.6712  144.2143  167.1878 H       1  UNL1        0.1555
     11 C         140.8374  142.4046  166.9402 C.ar    1  UNL1        0.1643
     12 N         142.0539  141.9981  166.1625 N.ar    1  UNL1       -0.2228
     13 C         142.7304  140.8861  166.9079 C.ar    1  UNL1        0.1030
     14 C         141.9321  140.6054  168.1464 C.ar    1  UNL1        0.0293
     15 C         142.2482  139.5682  169.1830 C.3     1  UNL1        0.0399
     16 S         140.7621  141.5439  168.1663 S.2     1  UNL1       -0.0557
     17 N         137.0843  140.9300  162.9889 N.pl3   1  UNL1       -0.2980
     18 H         136.1042  140.8749  163.0644 H       1  UNL1        0.1500
     19 C         137.8595  139.7744  162.4290 C.3     1  UNL1        0.1306
     20 C         137.4585  139.1675  161.1171 C.3     1  UNL1        0.0295
     21 C         139.0356  139.2255  163.1809 C.ar    1  UNL1        0.1570
     22 N         138.8417  138.1138  164.1690 N.ar    1  UNL1       -0.2251
     23 C         140.0178  137.5649  164.9209 C.ar    1  UNL1        0.1314
     24 C         141.3880  138.1278  164.6848 C.ar    1  UNL1        0.1783
     25 F         142.5641  137.5789  165.4367 F       1  UNL1       -0.2009
     26 C         141.5820  139.2396  163.6967 C.ar    1  UNL1        0.1314
     27 N         140.4058  139.7885  162.9447 N.ar    1  UNL1       -0.2251
@<TRIPOS>BOND
     1     7     8    1
     2     8     1    1
     3     1     2   ar
     4     2     3   ar
     5     3     9    1
     6     9    11    1
     7    11    12   ar
     8    12    13   ar
     9    13    14   ar
    10    14    15    1
    11    14    16   ar
    12     3     4   ar
    13     4     5   ar
    14     5    17    1
    15    17    19    1
    16    19    20    1
    17    19    21    1
    18    21    22   ar
    19    22    23   ar
    20    23    24   ar
    21    24    25    1
    22    24    26   ar
    23    26    27   ar
    24     5     6   ar
    25     6     1   ar
    26    16    11   ar
    27    27    21   ar
    28     9    10    1
    29    17    18    1
@<TRIPOS>MOLECULE
*****
 27 29 0 0 0
SMALL
GASTEIGER

@<TRIPOS>ATOM
      1 C         139.4632  138.2672  163.6664 C.ar    1  UNL1        0.2302
      2 C         139.3467  138.1628  165.1582 C.ar    1  UNL1        0.0922
      3 C         138.5895  139.2054  165.9261 C.ar    1  UNL1        0.1412
      4 N         137.9488  140.3523  165.2022 N.ar    1  UNL1       -0.1985
      5 C         138.0653  140.4566  163.7104 C.ar    1  UNL1        0.2208
      6 N         138.8225  139.4141  162.9425 N.ar    1  UNL1       -0.1788
      7 C         141.6045  137.5178  162.4003 C.3     1  UNL1        0.2542
      8 O         140.2204  137.2246  162.8985 O.3     1  UNL1       -0.4560
      9 N         138.4730  139.1010  167.4180 N.pl3   1  UNL1       -0.2780
     10 H         137.8201  138.4826  167.8187 H       1  UNL1        0.1555
     11 C         139.3513  139.9388  168.2993 C.ar    1  UNL1        0.1643
     12 N         139.2604  140.0414  169.7930 N.ar    1  UNL1       -0.2228
     13 C         140.3276  140.9871  170.2585 C.ar    1  UNL1        0.1030
     14 C         141.0781  141.4690  169.0525 C.ar    1  UNL1        0.0293
     15 C         142.2298  142.4300  169.0565 C.3     1  UNL1        0.0399
     16 S         140.4747  140.8211  167.8416 S.2     1  UNL1       -0.0557
     17 N         137.4245  141.6036  162.9865 N.pl3   1  UNL1       -0.2980
     18 H         136.6262  141.4508  162.4310 H       1  UNL1        0.1500
     19 C         138.0001  142.9833  163.1089 C.3     1  UNL1        0.1306
     20 C         137.6349  143.8472  164.2795 C.3     1  UNL1        0.0295
     21 C         138.9410  143.4992  162.0608 C.ar    1  UNL1        0.1570
     22 N         138.7232  143.1476  160.6189 N.ar    1  UNL1       -0.2251
     23 C         139.6641  143.6635  159.5708 C.ar    1  UNL1        0.1314
     24 C         140.8228  144.5309  159.9645 C.ar    1  UNL1        0.1783
     25 F         141.7637  145.0468  158.9163 F       1  UNL1       -0.2009
     26 C         141.0407  144.8825  161.4064 C.ar    1  UNL1        0.1314
     27 N         140.0998  144.3666  162.4545 N.ar    1  UNL1       -0.2251
@<TRIPOS>BOND
     1     7     8    1
     2     8     1    1
     3     1     2   ar
     4     2     3   ar
     5     3     9    1
     6     9    11    1
     7    11    12   ar
     8    12    13   ar
     9    13    14   ar
    10    14    15    1
    11    14    16   ar
    12     3     4   ar
    13     4     5   ar
    14     5    17    1
    15    17    19    1
    16    19    20    1
    17    19    21    1
    18    21    22   ar
    19    22    23   ar
    20    23    24   ar
    21    24    25    1
    22    24    26   ar
    23    26    27   ar
    24     5     6   ar
    25     6     1   ar
    26    16    11   ar
    27    27    21   ar
    28     9    10    1
    29    17    18    1
@<TRIPOS>MOLECULE
*****
 27 29 0 0 0
SMALL
GASTEIGER

@<TRIPOS>ATOM
      1 C         142.9616  138.4563  159.3796 C.ar    1  UNL1        0.2302
      2 C         141.5410  138.2026  159.7889 C.ar    1  UNL1        0.0922
      3 C         141.1708  138.1864  161.2424 C.ar    1  UNL1        0.1412
      4 N         142.2211  138.4239  162.2866 N.ar    1  UNL1       -0.1985
      5 C         143.6417  138.6776  161.8773 C.ar    1  UNL1        0.2208
      6 N         144.0119  138.6938  160.4238 N.ar    1  UNL1       -0.1788
      7 C         142.7982  137.4162  157.0044 C.3     1  UNL1        0.2542
      8 O         143.3319  138.4725  157.9261 O.3     1  UNL1       -0.4560
      9 N         139.7501  137.9328  161.6517 N.pl3   1  UNL1       -0.2780
     10 H         139.1860  137.3249  161.1210 H       1  UNL1        0.1555
     11 C         139.1890  138.6052  162.8694 C.ar    1  UNL1        0.1643
     12 N         138.6924  140.0185  162.9462 N.ar    1  UNL1       -0.2228
     13 C         138.2224  140.2693  164.3484 C.ar    1  UNL1        0.1030
     14 C         138.4285  139.0108  165.1383 C.ar    1  UNL1        0.0293
     15 C         138.0957  138.8152  166.5878 C.3     1  UNL1        0.0399
     16 S         139.0259  137.9824  164.2242 S.2     1  UNL1       -0.0557
     17 N         144.6921  138.9151  162.9215 N.pl3   1  UNL1       -0.2980
     18 H         145.6197  138.6270  162.7610 H       1  UNL1        0.1500
     19 C         144.3292  139.5915  164.2101 C.3     1  UNL1        0.1306
     20 C         144.0697  138.7727  165.4399 C.3     1  UNL1        0.0295
     21 C         144.2256  141.0868  164.2690 C.ar    1  UNL1        0.1570
     22 N         143.7516  141.7569  165.5245 N.ar    1  UNL1       -0.2251
     23 C         143.6481  143.2521  165.5834 C.ar    1  UNL1        0.1314
     24 C         144.0186  144.0773  164.3869 C.ar    1  UNL1        0.1783
     25 F         143.9151  145.5726  164.4459 F       1  UNL1       -0.2009
     26 C         144.4927  143.4073  163.1314 C.ar    1  UNL1        0.1314
     27 N         144.5962  141.9120  163.0724 N.ar    1  UNL1       -0.2251
@<TRIPOS>BOND
     1     7     8    1
     2     8     1    1
     3     1     2   ar
     4     2     3   ar
     5     3     9    1
     6     9    11    1
     7    11    12   ar
     8    12    13   ar
     9    13    14   ar
    10    14    15    1
    11    14    16   ar
    12     3     4   ar
    13     4     5   ar
    14     5    17    1
    15    17    19    1
    16    19    20    1
    17    19    21    1
    18    21    22   ar
    19    22    23   ar
    20    23    24   ar
    21    24    25    1
    22    24    26   ar
    23    26    27   ar
    24     5     6   ar
    25     6     1   ar
    26    16    11   ar
    27    27    21   ar
    28     9    10    1
    29    17    18    1
@<TRIPOS>MOLECULE
*****
 27 29 0 0 0
SMALL
GASTEIGER

@<TRIPOS>ATOM
      1 C         143.0746  138.5016  159.7389 C.ar    1  UNL1        0.2302
      2 C         141.6871  138.1461  160.1841 C.ar    1  UNL1        0.0922
      3 C         141.3440  138.1494  161.6444 C.ar    1  UNL1        0.1412
      4 N         142.3885  138.5081  162.6594 N.ar    1  UNL1       -0.1985
      5 C         143.7761  138.8635  162.2141 C.ar    1  UNL1        0.2208
      6 N         144.1191  138.8603  160.7539 N.ar    1  UNL1       -0.1788
      7 C         143.1239  139.7043  157.4365 C.3     1  UNL1        0.2542
      8 O         143.4177  138.4983  158.2786 O.3     1  UNL1       -0.4560
      9 N         139.9563  137.7939  162.0896 N.pl3   1  UNL1       -0.2780
     10 H         139.4475  137.1013  161.6092 H       1  UNL1        0.1555
     11 C         139.3440  138.4936  163.2666 C.ar    1  UNL1        0.1643
     12 N         138.8858  139.9214  163.3031 N.ar    1  UNL1       -0.2228
     13 C         138.3410  140.1987  164.6729 C.ar    1  UNL1        0.1030
     14 C         138.4625  138.9421  165.4830 C.ar    1  UNL1        0.0293
     15 C         138.0385  138.7696  166.9115 C.3     1  UNL1        0.0399
     16 S         139.0824  137.8884  164.6139 S.2     1  UNL1       -0.0557
     17 N         144.8207  139.2222  163.2292 N.pl3   1  UNL1       -0.2980
     18 H         145.5735  138.6107  163.3980 H       1  UNL1        0.1500
     19 C         144.7183  140.5127  163.9868 C.3     1  UNL1        0.1306
     20 C         145.7682  141.5699  163.8130 C.3     1  UNL1        0.0295
     21 C         143.5660  140.7462  164.9183 C.ar    1  UNL1        0.1570
     22 N         142.8981  142.0885  164.9634 N.ar    1  UNL1       -0.2251
     23 C         141.7457  142.3219  165.8949 C.ar    1  UNL1        0.1314
     24 C         141.2613  141.2131  166.7813 C.ar    1  UNL1        0.1783
     25 F         140.1090  141.4465  167.7127 F       1  UNL1       -0.2009
     26 C         141.9292  139.8707  166.7362 C.ar    1  UNL1        0.1314
     27 N         143.0815  139.6372  165.8047 N.ar    1  UNL1       -0.2251
@<TRIPOS>BOND
     1     7     8    1
     2     8     1    1
     3     1     2   ar
     4     2     3   ar
     5     3     9    1
     6     9    11    1
     7    11    12   ar
     8    12    13   ar
     9    13    14   ar
    10    14    15    1
    11    14    16   ar
    12     3     4   ar
    13     4     5   ar
    14     5    17    1
    15    17    19    1
    16    19    20    1
    17    19    21    1
    18    21    22   ar
    19    22    23   ar
    20    23    24   ar
    21    24    25    1
    22    24    26   ar
    23    26    27   ar
    24     5     6   ar
    25     6     1   ar
    26    16    11   ar
    27    27    21   ar
    28     9    10    1
    29    17    18    1
@<TRIPOS>MOLECULE
*****
 27 29 0 0 0
SMALL
GASTEIGER

@<TRIPOS>ATOM
      1 C         140.7796  139.9217  168.8108 C.ar    1  UNL1        0.2302
      2 C         139.5048  139.8956  168.0208 C.ar    1  UNL1        0.0922
      3 C         139.5466  139.6839  166.5364 C.ar    1  UNL1        0.1412
      4 N         140.8631  139.4983  165.8420 N.ar    1  UNL1       -0.1985
      5 C         142.1379  139.5244  166.6320 C.ar    1  UNL1        0.2208
      6 N         142.0962  139.7361  168.1164 N.ar    1  UNL1       -0.1788
      7 C         141.6118  141.1747  170.9292 C.3     1  UNL1        0.2542
      8 O         140.7379  140.1334  170.2952 O.3     1  UNL1       -0.4560
      9 N         138.2717  139.6578  165.7464 N.pl3   1  UNL1       -0.2780
     10 H         137.5529  139.0316  165.9923 H       1  UNL1        0.1555
     11 C         138.0920  140.5858  164.5817 C.ar    1  UNL1        0.1643
     12 N         137.8295  140.1785  163.1621 N.ar    1  UNL1       -0.2228
     13 C         137.7185  141.4250  162.3351 C.ar    1  UNL1        0.1030
     14 C         137.9124  142.6027  163.2436 C.ar    1  UNL1        0.0293
     15 C         137.8810  144.0458  162.8354 C.3     1  UNL1        0.0399
     16 S         138.1432  142.0841  164.6320 S.2     1  UNL1       -0.0557
     17 N         143.4546  139.3389  165.9376 N.pl3   1  UNL1       -0.2980
     18 H         144.1607  138.7968  166.3581 H       1  UNL1        0.1500
     19 C         143.6953  139.9792  164.6027 C.3     1  UNL1        0.1306
     20 C         144.2329  139.1625  163.4651 C.3     1  UNL1        0.0295
     21 C         143.3983  141.4362  164.4053 C.ar    1  UNL1        0.1570
     22 N         144.3553  142.4725  164.9153 N.ar    1  UNL1       -0.2251
     23 C         144.0584  143.9295  164.7179 C.ar    1  UNL1        0.1314
     24 C         142.8045  144.3502  164.0104 C.ar    1  UNL1        0.1783
     25 F         142.5075  145.8072  163.8130 F       1  UNL1       -0.2009
     26 C         141.8474  143.3139  163.5003 C.ar    1  UNL1        0.1314
     27 N         142.1443  141.8569  163.6978 N.ar    1  UNL1       -0.2251
@<TRIPOS>BOND
     1     7     8    1
     2     8     1    1
     3     1     2   ar
     4     2     3   ar
     5     3     9    1
     6     9    11    1
     7    11    12   ar
     8    12    13   ar
     9    13    14   ar
    10    14    15    1
    11    14    16   ar
    12     3     4   ar
    13     4     5   ar
    14     5    17    1
    15    17    19    1
    16    19    20    1
    17    19    21    1
    18    21    22   ar
    19    22    23   ar
    20    23    24   ar
    21    24    25    1
    22    24    26   ar
    23    26    27   ar
    24     5     6   ar
    25     6     1   ar
    26    16    11   ar
    27    27    21   ar
    28     9    10    1
    29    17    18    1
