@<TRIPOS>MOLECULE
*****
 30 33 0 0 0
SMALL
GASTEIGER

@<TRIPOS>ATOM
      1 C         139.7665  138.3195  162.5827 C.ar    1  UNL1        0.0853
      2 C         141.0915  137.6164  162.5880 C.ar    1  UNL1        0.1045
      3 N         142.0241  137.7826  163.7510 N.ar    1  UNL1       -0.2436
      4 C         141.6317  138.6519  164.9088 C.ar    1  UNL1        0.0825
      5 C         142.5643  138.8181  166.0718 C.ar    1  UNL1        0.0191
      6 C         142.1718  139.6873  167.2295 C.ar    1  UNL1        0.0016
      7 C         140.8468  140.3904  167.2242 C.ar    1  UNL1        0.0016
      8 C         139.9142  140.2242  166.0612 C.ar    1  UNL1        0.0028
      9 C         140.3067  139.3549  164.9035 C.ar    1  UNL1        0.0309
     10 C         139.3741  139.1887  163.7404 C.ar    1  UNL1        0.0519
     11 C         140.4544  141.2596  168.3821 C.ar    1  UNL1        0.0192
     12 C         140.8173  142.7150  168.3840 C.ar    1  UNL1        0.0031
     13 C         140.4249  143.5843  169.5418 C.ar    1  UNL1        0.0207
     14 C         139.6695  142.9981  170.6976 C.ar    1  UNL1        0.0989
     15 N         139.3066  141.5426  170.6956 N.ar    1  UNL1       -0.2423
     16 C         139.6990  140.6734  169.5378 C.ar    1  UNL1        0.0988
     17 N         139.3571  138.2589  160.0178 N.am    1  UNL1       -0.3252
     18 C         138.8339  138.1532  161.4196 C.2     1  UNL1        0.2455
     19 O         137.3782  137.8814  161.6584 O.2     1  UNL1       -0.2703
     20 H         138.7450  138.1498  159.2544 H       1  UNL1        0.1453
     21 H         140.3125  138.4373  159.8611 H       1  UNL1        0.1453
     22 N         138.0490  139.8918  163.7351 N.pl3   1  UNL1       -0.3325
     23 H         137.2732  139.4832  164.1829 H       1  UNL1        0.1468
     24 C         137.9060  141.2173  163.0476 C.3     1  UNL1        0.0870
     25 C         138.5975  142.4278  163.6013 C.3     1  UNL1        0.0195
     26 C         137.8675  143.3470  164.5351 C.3     1  UNL1        0.0017
     27 C         138.5589  144.5575  165.0888 C.3     1  UNL1        0.0001
     28 C         139.9804  144.8488  164.7087 C.3     1  UNL1        0.0000
     29 C         140.7105  143.9295  163.7748 C.3     1  UNL1        0.0001
     30 C         140.0190  142.7190  163.2211 C.3     1  UNL1        0.0017
@<TRIPOS>BOND
     1    17    18   am
     2    18    19    2
     3    18     1    1
     4     1     2   ar
     5     2     3   ar
     6     3     4   ar
     7     4     5   ar
     8     5     6   ar
     9     6     7   ar
    10     7    11    1
    11    11    12   ar
    12    12    13   ar
    13    13    14   ar
    14    14    15   ar
    15    15    16   ar
    16     7     8   ar
    17     8     9   ar
    18     9    10   ar
    19    10    22    1
    20    22    24    1
    21    24    25    1
    22    25    26    1
    23    26    27    1
    24    27    28    1
    25    28    29    1
    26    29    30    1
    27    10     1   ar
    28    30    25    1
    29     9     4   ar
    30    16    11   ar
    31    17    20    1
    32    17    21    1
    33    22    23    1
@<TRIPOS>MOLECULE
*****
 30 33 0 0 0
SMALL
GASTEIGER

@<TRIPOS>ATOM
      1 C         139.9327  141.6440  169.3176 C.ar    1  UNL1        0.0853
      2 C         138.9840  140.6810  169.9677 C.ar    1  UNL1        0.1045
      3 N         138.3615  139.5809  169.1601 N.ar    1  UNL1       -0.2436
      4 C         138.6878  139.4437  167.7024 C.ar    1  UNL1        0.0825
      5 C         138.0653  138.3436  166.8948 C.ar    1  UNL1        0.0191
      6 C         138.3916  138.2065  165.4372 C.ar    1  UNL1        0.0016
      7 C         139.3403  139.1695  164.7871 C.ar    1  UNL1        0.0016
      8 C         139.9627  140.2696  165.5947 C.ar    1  UNL1        0.0028
      9 C         139.6365  140.4067  167.0523 C.ar    1  UNL1        0.0309
     10 C         140.2590  141.5069  167.8600 C.ar    1  UNL1        0.0519
     11 C         139.6665  139.0324  163.3294 C.ar    1  UNL1        0.0192
     12 C         140.8461  139.7580  162.7534 C.ar    1  UNL1        0.0031
     13 C         141.1724  139.6209  161.2957 C.ar    1  UNL1        0.0207
     14 C         140.3190  138.7581  160.4141 C.ar    1  UNL1        0.0989
     15 N         139.1393  138.0324  160.9902 N.ar    1  UNL1       -0.2423
     16 C         138.8131  138.1696  162.4478 C.ar    1  UNL1        0.0988
     17 N         141.4935  142.4120  171.2474 N.am    1  UNL1       -0.3252
     18 C         140.5552  142.7442  170.1253 C.2     1  UNL1        0.2455
     19 O         140.2393  144.1764  169.8109 O.2     1  UNL1       -0.2703
     20 H         141.9021  143.1340  171.7775 H       1  UNL1        0.1453
     21 H         141.7009  141.4720  171.4538 H       1  UNL1        0.1453
     22 N         141.2077  142.4699  167.2100 N.pl3   1  UNL1       -0.3325
     23 H         140.8664  143.3006  166.8067 H       1  UNL1        0.1468
     24 C         142.6764  142.1671  167.1744 C.3     1  UNL1        0.0870
     25 C         143.2207  141.2114  166.1544 C.3     1  UNL1        0.0195
     26 C         143.7770  141.7307  164.8618 C.3     1  UNL1        0.0017
     27 C         144.3212  140.7749  163.8418 C.3     1  UNL1        0.0001
     28 C         144.3092  139.3000  164.1144 C.3     1  UNL1        0.0000
     29 C         143.7529  138.7807  165.4071 C.3     1  UNL1        0.0001
     30 C         143.2087  139.7364  166.4271 C.3     1  UNL1        0.0017
@<TRIPOS>BOND
     1    17    18   am
     2    18    19    2
     3    18     1    1
     4     1     2   ar
     5     2     3   ar
     6     3     4   ar
     7     4     5   ar
     8     5     6   ar
     9     6     7   ar
    10     7    11    1
    11    11    12   ar
    12    12    13   ar
    13    13    14   ar
    14    14    15   ar
    15    15    16   ar
    16     7     8   ar
    17     8     9   ar
    18     9    10   ar
    19    10    22    1
    20    22    24    1
    21    24    25    1
    22    25    26    1
    23    26    27    1
    24    27    28    1
    25    28    29    1
    26    29    30    1
    27    10     1   ar
    28    30    25    1
    29     9     4   ar
    30    16    11   ar
    31    17    20    1
    32    17    21    1
    33    22    23    1
@<TRIPOS>MOLECULE
*****
 30 33 0 0 0
SMALL
GASTEIGER

@<TRIPOS>ATOM
      1 C         144.0769  139.9611  162.0749 C.ar    1  UNL1        0.0853
      2 C         144.7947  141.2718  161.9458 C.ar    1  UNL1        0.1045
      3 N         144.7945  142.2428  163.0891 N.ar    1  UNL1       -0.2436
      4 C         144.0764  141.9030  164.3616 C.ar    1  UNL1        0.0825
      5 C         144.0762  142.8740  165.5049 C.ar    1  UNL1        0.0191
      6 C         143.3581  142.5342  166.7772 C.ar    1  UNL1        0.0016
      7 C         142.6403  141.2235  166.9062 C.ar    1  UNL1        0.0016
      8 C         142.6405  140.2525  165.7629 C.ar    1  UNL1        0.0028
      9 C         143.3585  140.5923  164.4906 C.ar    1  UNL1        0.0309
     10 C         143.3588  139.6213  163.3472 C.ar    1  UNL1        0.0519
     11 C         141.9221  140.8837  168.1786 C.ar    1  UNL1        0.0192
     12 C         140.4488  140.6033  168.1564 C.ar    1  UNL1        0.0031
     13 C         139.7307  140.2635  169.4288 C.ar    1  UNL1        0.0207
     14 C         140.4860  140.2043  170.7234 C.ar    1  UNL1        0.0989
     15 N         141.9594  140.4847  170.7456 N.ar    1  UNL1       -0.2423
     16 C         142.6775  140.8245  169.4732 C.ar    1  UNL1        0.0988
     17 N         143.9737  139.4917  159.5216 N.am    1  UNL1       -0.3252
     18 C         144.0771  138.9901  160.9315 C.2     1  UNL1        0.2455
     19 O         144.1808  137.5176  161.1980 O.2     1  UNL1       -0.2703
     20 H         143.9738  138.8544  158.7712 H       1  UNL1        0.1453
     21 H         143.9056  140.4581  159.3467 H       1  UNL1        0.1453
     22 N         142.6409  138.3106  163.4762 N.pl3   1  UNL1       -0.3325
     23 H         143.1129  137.5239  163.8333 H       1  UNL1        0.1468
     24 C         141.2038  138.1985  163.0611 C.3     1  UNL1        0.0870
     25 C         140.1149  138.5944  164.0139 C.3     1  UNL1        0.0195
     26 C         139.5688  139.9912  163.9901 C.3     1  UNL1        0.0017
     27 C         138.4800  140.3871  164.9429 C.3     1  UNL1        0.0001
     28 C         137.9372  139.3862  165.9193 C.3     1  UNL1        0.0000
     29 C         138.4833  137.9893  165.9430 C.3     1  UNL1        0.0001
     30 C         139.5722  137.5934  164.9903 C.3     1  UNL1        0.0017
@<TRIPOS>BOND
     1    17    18   am
     2    18    19    2
     3    18     1    1
     4     1     2   ar
     5     2     3   ar
     6     3     4   ar
     7     4     5   ar
     8     5     6   ar
     9     6     7   ar
    10     7    11    1
    11    11    12   ar
    12    12    13   ar
    13    13    14   ar
    14    14    15   ar
    15    15    16   ar
    16     7     8   ar
    17     8     9   ar
    18     9    10   ar
    19    10    22    1
    20    22    24    1
    21    24    25    1
    22    25    26    1
    23    26    27    1
    24    27    28    1
    25    28    29    1
    26    29    30    1
    27    10     1   ar
    28    30    25    1
    29     9     4   ar
    30    16    11   ar
    31    17    20    1
    32    17    21    1
    33    22    23    1
@<TRIPOS>MOLECULE
*****
 30 33 0 0 0
SMALL
GASTEIGER

@<TRIPOS>ATOM
      1 C         139.9732  144.2697  162.0937 C.ar    1  UNL1        0.0853
      2 C         139.1587  143.0974  161.6329 C.ar    1  UNL1        0.1045
      3 N         138.8976  141.9524  162.5661 N.ar    1  UNL1       -0.2436
      4 C         139.4509  141.9798  163.9601 C.ar    1  UNL1        0.0825
      5 C         139.1898  140.8349  164.8933 C.ar    1  UNL1        0.0191
      6 C         139.7431  140.8623  166.2872 C.ar    1  UNL1        0.0016
      7 C         140.5576  142.0346  166.7479 C.ar    1  UNL1        0.0016
      8 C         140.8187  143.1796  165.8147 C.ar    1  UNL1        0.0028
      9 C         140.2654  143.1521  164.4208 C.ar    1  UNL1        0.0309
     10 C         140.5265  144.2971  163.4876 C.ar    1  UNL1        0.0519
     11 C         141.1109  142.0620  168.1419 C.ar    1  UNL1        0.0192
     12 C         142.3788  141.3263  168.4602 C.ar    1  UNL1        0.0031
     13 C         142.9321  141.3536  169.8542 C.ar    1  UNL1        0.0207
     14 C         142.2176  142.1168  170.9299 C.ar    1  UNL1        0.0989
     15 N         140.9497  142.8525  170.6115 N.ar    1  UNL1       -0.2423
     16 C         140.3964  142.8251  169.2176 C.ar    1  UNL1        0.0988
     17 N         141.4611  145.4139  160.2972 N.am    1  UNL1       -0.3252
     18 C         140.2343  145.4147  161.1604 C.2     1  UNL1        0.2455
     19 O         139.2687  146.5604  161.0903 O.2     1  UNL1       -0.2703
     20 H         141.6324  146.1653  159.6847 H       1  UNL1        0.1453
     21 H         142.0948  144.6619  160.3432 H       1  UNL1        0.1453
     22 N         141.3410  145.4695  163.9483 N.pl3   1  UNL1       -0.3325
     23 H         140.9209  146.1806  164.4840 H       1  UNL1        0.1468
     24 C         142.7956  145.5582  163.5928 C.3     1  UNL1        0.0870
     25 C         143.6332  144.3148  163.5451 C.3     1  UNL1        0.0195
     26 C         144.1295  143.6956  164.8179 C.3     1  UNL1        0.0017
     27 C         144.9672  142.4522  164.7702 C.3     1  UNL1        0.0001
     28 C         145.3085  141.8280  163.4497 C.3     1  UNL1        0.0000
     29 C         144.8122  142.4472  162.1768 C.3     1  UNL1        0.0001
     30 C         143.9746  143.6906  162.2245 C.3     1  UNL1        0.0017
@<TRIPOS>BOND
     1    17    18   am
     2    18    19    2
     3    18     1    1
     4     1     2   ar
     5     2     3   ar
     6     3     4   ar
     7     4     5   ar
     8     5     6   ar
     9     6     7   ar
    10     7    11    1
    11    11    12   ar
    12    12    13   ar
    13    13    14   ar
    14    14    15   ar
    15    15    16   ar
    16     7     8   ar
    17     8     9   ar
    18     9    10   ar
    19    10    22    1
    20    22    24    1
    21    24    25    1
    22    25    26    1
    23    26    27    1
    24    27    28    1
    25    28    29    1
    26    29    30    1
    27    10     1   ar
    28    30    25    1
    29     9     4   ar
    30    16    11   ar
    31    17    20    1
    32    17    21    1
    33    22    23    1
@<TRIPOS>MOLECULE
*****
 30 33 0 0 0
SMALL
GASTEIGER

@<TRIPOS>ATOM
      1 C         140.9416  144.8282  162.1338 C.ar    1  UNL1        0.0853
      2 C         142.3323  144.3754  161.8006 C.ar    1  UNL1        0.1045
      3 N         143.0789  143.4854  162.7495 N.ar    1  UNL1       -0.2436
      4 C         142.4348  143.0482  164.0317 C.ar    1  UNL1        0.0825
      5 C         143.1814  142.1582  164.9806 C.ar    1  UNL1        0.0191
      6 C         142.5374  141.7211  166.2628 C.ar    1  UNL1        0.0016
      7 C         141.1467  142.1739  166.5961 C.ar    1  UNL1        0.0016
      8 C         140.4001  143.0638  165.6472 C.ar    1  UNL1        0.0028
      9 C         141.0442  143.5010  164.3650 C.ar    1  UNL1        0.0309
     10 C         140.2976  144.3911  163.4160 C.ar    1  UNL1        0.0519
     11 C         140.5027  141.7366  167.8783 C.ar    1  UNL1        0.0192
     12 C         140.4294  142.6814  169.0411 C.ar    1  UNL1        0.0031
     13 C         139.7854  142.2442  170.3233 C.ar    1  UNL1        0.0207
     14 C         139.2146  140.8622  170.4428 C.ar    1  UNL1        0.0989
     15 N         139.2878  139.9174  169.2799 N.ar    1  UNL1       -0.2423
     16 C         139.9319  140.3546  167.9978 C.ar    1  UNL1        0.0988
     17 N         140.0210  145.3089  159.7523 N.am    1  UNL1       -0.3252
     18 C         140.1950  145.7183  161.1848 C.2     1  UNL1        0.2455
     19 O         139.6225  147.0176  161.6684 O.2     1  UNL1       -0.2703
     20 H         139.5310  145.8930  159.1295 H       1  UNL1        0.1453
     21 H         140.3968  144.4561  159.4349 H       1  UNL1        0.1453
     22 N         138.9069  144.8439  163.7493 N.pl3   1  UNL1       -0.3325
     23 H         138.7696  145.5980  164.3670 H       1  UNL1        0.1468
     24 C         137.7255  144.1476  163.1413 C.3     1  UNL1        0.0870
     25 C         137.8358  142.7120  162.7207 C.3     1  UNL1        0.0195
     26 C         137.6847  141.6190  163.7368 C.3     1  UNL1        0.0017
     27 C         137.7950  140.1834  163.3162 C.3     1  UNL1        0.0001
     28 C         138.0564  139.8408  161.8795 C.3     1  UNL1        0.0000
     29 C         138.2076  140.9338  160.8633 C.3     1  UNL1        0.0001
     30 C         138.0973  142.3694  161.2839 C.3     1  UNL1        0.0017
@<TRIPOS>BOND
     1    17    18   am
     2    18    19    2
     3    18     1    1
     4     1     2   ar
     5     2     3   ar
     6     3     4   ar
     7     4     5   ar
     8     5     6   ar
     9     6     7   ar
    10     7    11    1
    11    11    12   ar
    12    12    13   ar
    13    13    14   ar
    14    14    15   ar
    15    15    16   ar
    16     7     8   ar
    17     8     9   ar
    18     9    10   ar
    19    10    22    1
    20    22    24    1
    21    24    25    1
    22    25    26    1
    23    26    27    1
    24    27    28    1
    25    28    29    1
    26    29    30    1
    27    10     1   ar
    28    30    25    1
    29     9     4   ar
    30    16    11   ar
    31    17    20    1
    32    17    21    1
    33    22    23    1
@<TRIPOS>MOLECULE
*****
 30 33 0 0 0
SMALL
GASTEIGER

@<TRIPOS>ATOM
      1 C         140.8164  139.0889  161.9641 C.ar    1  UNL1        0.0853
      2 C         139.8405  137.9498  161.9729 C.ar    1  UNL1        0.1045
      3 N         139.0504  137.6487  163.2119 N.ar    1  UNL1       -0.2436
      4 C         139.2363  138.4867  164.4421 C.ar    1  UNL1        0.0825
      5 C         138.4463  138.1855  165.6811 C.ar    1  UNL1        0.0191
      6 C         138.6321  139.0235  166.9112 C.ar    1  UNL1        0.0016
      7 C         139.6081  140.1625  166.9024 C.ar    1  UNL1        0.0016
      8 C         140.3981  140.4636  165.6634 C.ar    1  UNL1        0.0028
      9 C         140.2122  139.6257  164.4333 C.ar    1  UNL1        0.0309
     10 C         141.0023  139.9268  163.1942 C.ar    1  UNL1        0.0519
     11 C         139.7940  141.0005  168.1326 C.ar    1  UNL1        0.0192
     12 C         140.4407  142.3500  168.0302 C.ar    1  UNL1        0.0031
     13 C         140.6266  143.1879  169.2604 C.ar    1  UNL1        0.0207
     14 C         140.1657  142.6763  170.5930 C.ar    1  UNL1        0.0989
     15 N         139.5189  141.3267  170.6954 N.ar    1  UNL1       -0.2423
     16 C         139.3331  140.4888  169.4652 C.ar    1  UNL1        0.0988
     17 N         142.6666  138.4356  160.2611 N.am    1  UNL1       -0.3252
     18 C         141.6065  139.3900  160.7250 C.2     1  UNL1        0.2455
     19 O         141.3364  140.6455  159.9500 O.2     1  UNL1       -0.2703
     20 H         143.1852  138.6332  159.4479 H       1  UNL1        0.1453
     21 H         142.8439  137.6116  160.7699 H       1  UNL1        0.1453
     22 N         141.9783  141.0659  163.1854 N.pl3   1  UNL1       -0.3325
     23 H         142.9140  140.9144  163.4511 H       1  UNL1        0.1468
     24 C         141.5284  142.4358  162.7716 C.3     1  UNL1        0.0870
     25 C         140.2981  143.0377  163.3832 C.3     1  UNL1        0.0195
     26 C         140.4119  143.8922  164.6107 C.3     1  UNL1        0.0017
     27 C         139.1816  144.4941  165.2223 C.3     1  UNL1        0.0001
     28 C         137.8375  144.2416  164.6063 C.3     1  UNL1        0.0000
     29 C         137.7236  143.3871  163.3787 C.3     1  UNL1        0.0001
     30 C         138.9539  142.7851  162.7672 C.3     1  UNL1        0.0017
@<TRIPOS>BOND
     1    17    18   am
     2    18    19    2
     3    18     1    1
     4     1     2   ar
     5     2     3   ar
     6     3     4   ar
     7     4     5   ar
     8     5     6   ar
     9     6     7   ar
    10     7    11    1
    11    11    12   ar
    12    12    13   ar
    13    13    14   ar
    14    14    15   ar
    15    15    16   ar
    16     7     8   ar
    17     8     9   ar
    18     9    10   ar
    19    10    22    1
    20    22    24    1
    21    24    25    1
    22    25    26    1
    23    26    27    1
    24    27    28    1
    25    28    29    1
    26    29    30    1
    27    10     1   ar
    28    30    25    1
    29     9     4   ar
    30    16    11   ar
    31    17    20    1
    32    17    21    1
    33    22    23    1
@<TRIPOS>MOLECULE
*****
 30 33 0 0 0
SMALL
GASTEIGER

@<TRIPOS>ATOM
      1 C         140.7466  140.7938  169.6627 C.ar    1  UNL1        0.0853
      2 C         139.3528  140.3990  170.0518 C.ar    1  UNL1        0.1045
      3 N         138.4598  139.7205  169.0557 N.ar    1  UNL1       -0.2436
      4 C         138.9607  139.4367  167.6705 C.ar    1  UNL1        0.0825
      5 C         138.0677  138.7582  166.6744 C.ar    1  UNL1        0.0191
      6 C         138.5686  138.4745  165.2893 C.ar    1  UNL1        0.0016
      7 C         139.9624  138.8693  164.9003 C.ar    1  UNL1        0.0016
      8 C         140.8554  139.5478  165.8963 C.ar    1  UNL1        0.0028
      9 C         140.3545  139.8315  167.2815 C.ar    1  UNL1        0.0309
     10 C         141.2475  140.5101  168.2776 C.ar    1  UNL1        0.0519
     11 C         140.4633  138.5855  163.5151 C.ar    1  UNL1        0.0192
     12 C         141.9130  138.2722  163.2913 C.ar    1  UNL1        0.0031
     13 C         142.4139  137.9885  161.9061 C.ar    1  UNL1        0.0207
     14 C         141.4649  138.0180  160.7447 C.ar    1  UNL1        0.0989
     15 N         140.0151  138.3313  160.9686 N.ar    1  UNL1       -0.2423
     16 C         139.5144  138.6151  162.3538 C.ar    1  UNL1        0.0988
     17 N         142.4918  140.6531  171.5823 N.am    1  UNL1       -0.3252
     18 C         141.6396  141.4723  170.6589 C.2     1  UNL1        0.2455
     19 O         141.6804  142.9700  170.7315 O.2     1  UNL1       -0.2703
     20 H         143.0778  141.0985  172.2361 H       1  UNL1        0.1453
     21 H         142.4650  139.6702  171.5346 H       1  UNL1        0.1453
     22 N         142.6413  140.9048  167.8886 N.pl3   1  UNL1       -0.3325
     23 H         143.4031  140.3345  168.1409 H       1  UNL1        0.1468
     24 C         142.8746  142.1687  167.1150 C.3     1  UNL1        0.0870
     25 C         143.5891  142.1203  165.7971 C.3     1  UNL1        0.0195
     26 C         143.9681  140.7987  165.1974 C.3     1  UNL1        0.0017
     27 C         144.6826  140.7503  163.8795 C.3     1  UNL1        0.0001
     28 C         145.0183  142.0236  163.1611 C.3     1  UNL1        0.0000
     29 C         144.6393  143.3453  163.7607 C.3     1  UNL1        0.0001
     30 C         143.9248  143.3937  165.0787 C.3     1  UNL1        0.0017
@<TRIPOS>BOND
     1    17    18   am
     2    18    19    2
     3    18     1    1
     4     1     2   ar
     5     2     3   ar
     6     3     4   ar
     7     4     5   ar
     8     5     6   ar
     9     6     7   ar
    10     7    11    1
    11    11    12   ar
    12    12    13   ar
    13    13    14   ar
    14    14    15   ar
    15    15    16   ar
    16     7     8   ar
    17     8     9   ar
    18     9    10   ar
    19    10    22    1
    20    22    24    1
    21    24    25    1
    22    25    26    1
    23    26    27    1
    24    27    28    1
    25    28    29    1
    26    29    30    1
    27    10     1   ar
    28    30    25    1
    29     9     4   ar
    30    16    11   ar
    31    17    20    1
    32    17    21    1
    33    22    23    1
@<TRIPOS>MOLECULE
*****
 30 33 0 0 0
SMALL
GASTEIGER

@<TRIPOS>ATOM
      1 C         141.2331  141.3213  169.4938 C.ar    1  UNL1        0.0853
      2 C         140.1026  140.8161  170.3405 C.ar    1  UNL1        0.1045
      3 N         138.9998  140.0128  169.7173 N.ar    1  UNL1       -0.2436
      4 C         139.0274  139.7145  168.2475 C.ar    1  UNL1        0.0825
      5 C         137.9246  138.9111  167.6243 C.ar    1  UNL1        0.0191
      6 C         137.9523  138.6129  166.1546 C.ar    1  UNL1        0.0016
      7 C         139.0828  139.1180  165.3080 C.ar    1  UNL1        0.0016
      8 C         140.1856  139.9214  165.9311 C.ar    1  UNL1        0.0028
      9 C         140.1579  140.2197  167.4009 C.ar    1  UNL1        0.0309
     10 C         141.2608  141.0231  168.0241 C.ar    1  UNL1        0.0519
     11 C         139.1105  138.8198  163.8381 C.ar    1  UNL1        0.0192
     12 C         138.1281  139.4838  162.9195 C.ar    1  UNL1        0.0031
     13 C         138.1558  139.1856  161.4496 C.ar    1  UNL1        0.0207
     14 C         139.1658  138.2232  160.8985 C.ar    1  UNL1        0.0989
     15 N         140.1482  137.5592  161.8173 N.ar    1  UNL1       -0.2423
     16 C         140.1205  137.8574  163.2870 C.ar    1  UNL1        0.0988
     17 N         143.6585  141.4812  170.4113 N.am    1  UNL1       -0.3252
     18 C         142.3359  142.1247  170.1171 C.2     1  UNL1        0.2455
     19 O         142.1161  143.5716  170.4460 O.2     1  UNL1       -0.2703
     20 H         144.3824  142.0085  170.8203 H       1  UNL1        0.1453
     21 H         143.8028  140.5316  170.1954 H       1  UNL1        0.1453
     22 N         142.3913  141.5282  167.1774 N.pl3   1  UNL1       -0.3325
     23 H         143.2287  141.0141  167.1167 H       1  UNL1        0.1468
     24 C         142.2459  142.8168  166.4234 C.3     1  UNL1        0.0870
     25 C         141.1739  142.9607  165.3841 C.3     1  UNL1        0.0195
     26 C         141.4290  142.5105  163.9762 C.3     1  UNL1        0.0017
     27 C         140.3570  142.6544  162.9369 C.3     1  UNL1        0.0001
     28 C         139.0300  143.2485  163.3054 C.3     1  UNL1        0.0000
     29 C         138.7748  143.6987  164.7134 C.3     1  UNL1        0.0001
     30 C         139.8468  143.5548  165.7527 C.3     1  UNL1        0.0017
@<TRIPOS>BOND
     1    17    18   am
     2    18    19    2
     3    18     1    1
     4     1     2   ar
     5     2     3   ar
     6     3     4   ar
     7     4     5   ar
     8     5     6   ar
     9     6     7   ar
    10     7    11    1
    11    11    12   ar
    12    12    13   ar
    13    13    14   ar
    14    14    15   ar
    15    15    16   ar
    16     7     8   ar
    17     8     9   ar
    18     9    10   ar
    19    10    22    1
    20    22    24    1
    21    24    25    1
    22    25    26    1
    23    26    27    1
    24    27    28    1
    25    28    29    1
    26    29    30    1
    27    10     1   ar
    28    30    25    1
    29     9     4   ar
    30    16    11   ar
    31    17    20    1
    32    17    21    1
    33    22    23    1
@<TRIPOS>MOLECULE
*****
 30 33 0 0 0
SMALL
GASTEIGER

@<TRIPOS>ATOM
      1 C         140.9644  141.2071  169.3793 C.ar    1  UNL1        0.0853
      2 C         141.8960  142.3672  169.5701 C.ar    1  UNL1        0.1045
      3 N         142.8135  142.7831  168.4588 N.ar    1  UNL1       -0.2436
      4 C         142.7996  142.0387  167.1565 C.ar    1  UNL1        0.0825
      5 C         143.7171  142.4545  166.0451 C.ar    1  UNL1        0.0191
      6 C         143.7031  141.7102  164.7429 C.ar    1  UNL1        0.0016
      7 C         142.7716  140.5501  164.5521 C.ar    1  UNL1        0.0016
      8 C         141.8541  140.1343  165.6634 C.ar    1  UNL1        0.0028
      9 C         141.8680  140.8786  166.9656 C.ar    1  UNL1        0.0309
     10 C         140.9505  140.4628  168.0771 C.ar    1  UNL1        0.0519
     11 C         142.7577  139.8058  163.2498 C.ar    1  UNL1        0.0192
     12 C         141.7184  140.1230  162.2158 C.ar    1  UNL1        0.0031
     13 C         141.7044  139.3787  160.9135 C.ar    1  UNL1        0.0207
     14 C         142.7298  138.3172  160.6453 C.ar    1  UNL1        0.0989
     15 N         143.7691  138.0001  161.6794 N.ar    1  UNL1       -0.2423
     16 C         143.7830  138.7444  162.9816 C.ar    1  UNL1        0.0988
     17 N         140.6145  140.2449  171.7671 N.am    1  UNL1       -0.3252
     18 C         140.0469  140.7913  170.4907 C.2     1  UNL1        0.2455
     19 O         138.5617  140.9220  170.3258 O.2     1  UNL1       -0.2703
     20 H         140.0123  139.9720  172.4966 H       1  UNL1        0.1453
     21 H         141.5893  140.1591  171.8754 H       1  UNL1        0.1453
     22 N         140.0189  139.3027  167.8863 N.pl3   1  UNL1       -0.3325
     23 H         140.2674  138.4114  168.2225 H       1  UNL1        0.1468
     24 C         138.7088  139.5006  167.1830 C.3     1  UNL1        0.0870
     25 C         138.6101  139.2741  165.7035 C.3     1  UNL1        0.0195
     26 C         138.9772  137.9407  165.1228 C.3     1  UNL1        0.0017
     27 C         138.8784  137.7142  163.6433 C.3     1  UNL1        0.0001
     28 C         138.4126  138.8210  162.7445 C.3     1  UNL1        0.0000
     29 C         138.0454  140.1545  163.3252 C.3     1  UNL1        0.0001
     30 C         138.1442  140.3810  164.8047 C.3     1  UNL1        0.0017
@<TRIPOS>BOND
     1    17    18   am
     2    18    19    2
     3    18     1    1
     4     1     2   ar
     5     2     3   ar
     6     3     4   ar
     7     4     5   ar
     8     5     6   ar
     9     6     7   ar
    10     7    11    1
    11    11    12   ar
    12    12    13   ar
    13    13    14   ar
    14    14    15   ar
    15    15    16   ar
    16     7     8   ar
    17     8     9   ar
    18     9    10   ar
    19    10    22    1
    20    22    24    1
    21    24    25    1
    22    25    26    1
    23    26    27    1
    24    27    28    1
    25    28    29    1
    26    29    30    1
    27    10     1   ar
    28    30    25    1
    29     9     4   ar
    30    16    11   ar
    31    17    20    1
    32    17    21    1
    33    22    23    1
