@<TRIPOS>MOLECULE
*****
 35 39 0 0 0
SMALL
GASTEIGER

@<TRIPOS>ATOM
      1 N         142.2254  141.4715  167.6032 N.ar    1  UNL1       -0.2815
      2 C         142.8656  142.1101  168.8000 C.ar    1  UNL1        0.3316
      3 O         144.1487  142.8870  168.8042 O.2     1  UNL1       -0.2463
      4 N         141.9973  141.8354  169.9919 N.ar    1  UNL1       -0.2765
      5 C         142.2598  142.2894  171.3974 C.3     1  UNL1        0.1352
      6 C         140.8206  141.0270  169.5318 C.ar    1  UNL1        0.0989
      7 C         139.6389  140.4667  170.2663 C.ar    1  UNL1        0.1175
      8 N         138.5981  139.6814  169.5246 N.ar    1  UNL1       -0.2422
      9 C         138.7391  139.4565  168.0482 C.ar    1  UNL1        0.0828
     10 C         137.6984  138.6712  167.3065 C.ar    1  UNL1        0.0191
     11 C         137.8394  138.4463  165.8302 C.ar    1  UNL1        0.0017
     12 C         139.0211  139.0066  165.0956 C.ar    1  UNL1        0.0038
     13 C         140.0618  139.7919  165.8374 C.ar    1  UNL1        0.0031
     14 C         139.9208  140.0168  167.3137 C.ar    1  UNL1        0.0350
     15 C         140.9616  140.8021  168.0555 C.ar    1  UNL1        0.0826
     16 C         139.1620  138.7817  163.6193 C.ar    1  UNL1        0.0462
     17 C         138.2383  139.4763  162.6632 C.ar    1  UNL1        0.0086
     18 C         138.3792  139.2514  161.1868 C.ar    1  UNL1        0.0579
     19 C         139.4440  138.3318  160.6666 C.ar    1  UNL1        0.2268
     20 N         140.3678  137.6371  161.6228 N.ar    1  UNL1       -0.1832
     21 C         140.2268  137.8621  163.0990 C.ar    1  UNL1        0.2247
     22 F         141.1506  137.1674  164.0552 F       1  UNL1       -0.1831
     23 O         139.5850  138.1068  159.1903 O.3     1  UNL1       -0.4601
     24 C         140.4274  139.0356  158.3673 C.3     1  UNL1        0.2085
     25 C         141.8016  138.6173  157.9349 C.3     1  UNL1        0.0647
     26 C         142.7031  137.8980  158.8940 C.3     1  UNL1        0.0760
     27 N         143.5133  138.6755  159.8884 N.3     1  UNL1       -0.2702
     28 C         143.9511  138.0284  161.1690 C.3     1  UNL1        0.0897
     29 C         143.8859  140.1000  159.6024 C.3     1  UNL1        0.0897
     30 C         143.5063  141.5347  164.2166 C.3     1  UNL1        0.1191
     31 C         143.4565  140.5120  165.3129 C.3     1  UNL1        0.0524
     32 C         142.7560  141.4976  166.2004 C.3     1  UNL1        0.0947
     33 C         142.8057  142.5203  165.1042 C.3     1  UNL1        0.0524
     34 C         145.4585  141.9646  162.5570 C.3     1  UNL1        0.1740
     35 O         144.0369  141.5608  162.8138 O.3     1  UNL1       -0.3534
@<TRIPOS>BOND
     1    34    35    1
     2    30    35    1
     3    30    31    1
     4    31    32    1
     5    32     1    1
     6     1     2   ar
     7     2     3    2
     8     2     4   ar
     9     4     5    1
    10     4     6   ar
    11     6     7   ar
    12     7     8   ar
    13     8     9   ar
    14     9    10   ar
    15    10    11   ar
    16    11    12   ar
    17    12    16    1
    18    16    17   ar
    19    17    18   ar
    20    18    19   ar
    21    19    23    1
    22    23    24    1
    23    24    25    1
    24    25    26    1
    25    26    27    1
    26    27    28    1
    27    27    29    1
    28    19    20   ar
    29    20    21   ar
    30    21    22    1
    31    12    13   ar
    32    13    14   ar
    33    14    15   ar
    34    32    33    1
    35    33    30    1
    36    15     1   ar
    37    15     6   ar
    38    14     9   ar
    39    21    16   ar
@<TRIPOS>MOLECULE
*****
 35 39 0 0 0
SMALL
GASTEIGER

@<TRIPOS>ATOM
      1 N         142.6013  142.9641  161.5978 N.ar    1  UNL1       -0.2815
      2 C         142.8519  143.3990  160.1843 C.ar    1  UNL1        0.3316
      3 O         143.8933  142.8393  159.2611 O.2     1  UNL1       -0.2463
      4 N         141.8782  144.4918  159.8560 N.ar    1  UNL1       -0.2765
      5 C         141.7750  145.2169  158.5468 C.3     1  UNL1        0.1352
      6 C         141.0259  144.7323  161.0666 C.ar    1  UNL1        0.0989
      7 C         139.9006  145.6891  161.3279 C.ar    1  UNL1        0.1175
      8 N         139.2221  145.7017  162.6656 N.ar    1  UNL1       -0.2422
      9 C         139.6690  144.7575  163.7421 C.ar    1  UNL1        0.0828
     10 C         138.9906  144.7701  165.0798 C.ar    1  UNL1        0.0191
     11 C         139.4374  143.8260  166.1563 C.ar    1  UNL1        0.0017
     12 C         140.5628  142.8692  165.8951 C.ar    1  UNL1        0.0038
     13 C         141.2412  142.8566  164.5573 C.ar    1  UNL1        0.0031
     14 C         140.7943  143.8007  163.4809 C.ar    1  UNL1        0.0350
     15 C         141.4728  143.7882  162.1431 C.ar    1  UNL1        0.0826
     16 C         141.0096  141.9250  166.9716 C.ar    1  UNL1        0.0462
     17 C         142.3155  142.1521  167.6738 C.ar    1  UNL1        0.0086
     18 C         142.7624  141.2079  168.7503 C.ar    1  UNL1        0.0579
     19 C         141.9033  140.0367  169.1247 C.ar    1  UNL1        0.2268
     20 N         140.5974  139.8096  168.4224 N.ar    1  UNL1       -0.1832
     21 C         140.1506  140.7537  167.3459 C.ar    1  UNL1        0.2247
     22 F         138.8447  140.5266  166.6437 F       1  UNL1       -0.1831
     23 O         142.3501  139.0925  170.2011 O.3     1  UNL1       -0.4601
     24 C         143.2974  137.9764  169.8741 C.3     1  UNL1        0.2085
     25 C         143.6616  136.9696  170.9247 C.3     1  UNL1        0.0647
     26 C         144.7463  135.9681  170.6597 C.3     1  UNL1        0.0760
     27 N         145.8113  135.7263  171.6879 N.3     1  UNL1       -0.2702
     28 C         147.0492  136.5735  171.6990 C.3     1  UNL1        0.0897
     29 C         145.6386  134.6375  172.7050 C.3     1  UNL1        0.0897
     30 C         144.4043  140.3788  163.3809 C.3     1  UNL1        0.1191
     31 C         143.2685  140.3968  162.4012 C.3     1  UNL1        0.0524
     32 C         143.3481  141.8932  162.3364 C.3     1  UNL1        0.0947
     33 C         144.4839  141.8753  163.3160 C.3     1  UNL1        0.0524
     34 C         144.5629  138.7022  165.3592 C.3     1  UNL1        0.1740
     35 O         145.1511  139.3079  164.1194 O.3     1  UNL1       -0.3534
@<TRIPOS>BOND
     1    34    35    1
     2    30    35    1
     3    30    31    1
     4    31    32    1
     5    32     1    1
     6     1     2   ar
     7     2     3    2
     8     2     4   ar
     9     4     5    1
    10     4     6   ar
    11     6     7   ar
    12     7     8   ar
    13     8     9   ar
    14     9    10   ar
    15    10    11   ar
    16    11    12   ar
    17    12    16    1
    18    16    17   ar
    19    17    18   ar
    20    18    19   ar
    21    19    23    1
    22    23    24    1
    23    24    25    1
    24    25    26    1
    25    26    27    1
    26    27    28    1
    27    27    29    1
    28    19    20   ar
    29    20    21   ar
    30    21    22    1
    31    12    13   ar
    32    13    14   ar
    33    14    15   ar
    34    32    33    1
    35    33    30    1
    36    15     1   ar
    37    15     6   ar
    38    14     9   ar
    39    21    16   ar
@<TRIPOS>MOLECULE
*****
 35 39 0 0 0
SMALL
GASTEIGER

@<TRIPOS>ATOM
      1 N         142.4525  141.4660  167.3709 N.ar    1  UNL1       -0.2815
      2 C         142.8610  142.0731  168.6803 C.ar    1  UNL1        0.3316
      3 O         144.0994  142.8823  168.9288 O.2     1  UNL1       -0.2463
      4 N         141.8138  141.7289  169.6976 N.ar    1  UNL1       -0.2765
      5 C         141.8210  142.1335  171.1420 C.3     1  UNL1        0.1352
      6 C         140.7580  140.9091  169.0169 C.ar    1  UNL1        0.0989
      7 C         139.4882  140.2896  169.5207 C.ar    1  UNL1        0.1175
      8 N         138.6132  139.5076  168.5865 N.ar    1  UNL1       -0.2422
      9 C         139.0079  139.3450  167.1485 C.ar    1  UNL1        0.0828
     10 C         138.1329  138.5630  166.2143 C.ar    1  UNL1        0.0191
     11 C         138.5276  138.4006  164.7764 C.ar    1  UNL1        0.0017
     12 C         139.7974  139.0201  164.2726 C.ar    1  UNL1        0.0038
     13 C         140.6725  139.8021  165.2068 C.ar    1  UNL1        0.0031
     14 C         140.2777  139.9646  166.6447 C.ar    1  UNL1        0.0350
     15 C         141.1528  140.7466  167.5789 C.ar    1  UNL1        0.0826
     16 C         140.1922  138.8576  162.8346 C.ar    1  UNL1        0.0462
     17 C         141.4804  138.1744  162.4830 C.ar    1  UNL1        0.0086
     18 C         141.8752  138.0119  161.0450 C.ar    1  UNL1        0.0579
     19 C         140.9816  138.5326  159.9586 C.ar    1  UNL1        0.2268
     20 N         139.6933  139.2158  160.3101 N.ar    1  UNL1       -0.1832
     21 C         139.2986  139.3783  161.7481 C.ar    1  UNL1        0.2247
     22 F         138.0103  140.0615  162.0997 F       1  UNL1       -0.1831
     23 O         141.3763  138.3701  158.5206 O.3     1  UNL1       -0.4601
     24 C         142.5955  137.5730  158.1630 C.3     1  UNL1        0.2085
     25 C         142.9475  137.3461  156.7226 C.3     1  UNL1        0.0647
     26 C         143.7240  136.1264  156.3234 C.3     1  UNL1        0.0760
     27 N         143.1440  134.7614  156.5477 N.3     1  UNL1       -0.2702
     28 C         141.9864  134.2926  155.7170 C.3     1  UNL1        0.0897
     29 C         143.7217  133.8652  157.6028 C.3     1  UNL1        0.0897
     30 C         144.2826  141.6964  164.2546 C.3     1  UNL1        0.1191
     31 C         143.6816  142.6869  165.2074 C.3     1  UNL1        0.0524
     32 C         143.2105  141.5615  166.0801 C.3     1  UNL1        0.0947
     33 C         143.8116  140.5710  165.1273 C.3     1  UNL1        0.0524
     34 C         144.3350  141.5601  161.6606 C.3     1  UNL1        0.1740
     35 O         145.0407  141.7920  162.9638 O.3     1  UNL1       -0.3534
@<TRIPOS>BOND
     1    34    35    1
     2    30    35    1
     3    30    31    1
     4    31    32    1
     5    32     1    1
     6     1     2   ar
     7     2     3    2
     8     2     4   ar
     9     4     5    1
    10     4     6   ar
    11     6     7   ar
    12     7     8   ar
    13     8     9   ar
    14     9    10   ar
    15    10    11   ar
    16    11    12   ar
    17    12    16    1
    18    16    17   ar
    19    17    18   ar
    20    18    19   ar
    21    19    23    1
    22    23    24    1
    23    24    25    1
    24    25    26    1
    25    26    27    1
    26    27    28    1
    27    27    29    1
    28    19    20   ar
    29    20    21   ar
    30    21    22    1
    31    12    13   ar
    32    13    14   ar
    33    14    15   ar
    34    32    33    1
    35    33    30    1
    36    15     1   ar
    37    15     6   ar
    38    14     9   ar
    39    21    16   ar
@<TRIPOS>MOLECULE
*****
 35 39 0 0 0
SMALL
GASTEIGER

@<TRIPOS>ATOM
      1 N         140.0228  139.8572  166.2809 N.ar    1  UNL1       -0.2815
      2 C         139.2060  139.6835  167.5270 C.ar    1  UNL1        0.3316
      3 O         137.9749  138.8374  167.6634 O.2     1  UNL1       -0.2463
      4 N         139.8364  140.5045  168.6126 N.ar    1  UNL1       -0.2765
      5 C         139.3465  140.6234  170.0254 C.3     1  UNL1        0.1352
      6 C         141.0428  141.1856  168.0375 C.ar    1  UNL1        0.0989
      7 C         142.0513  142.1183  168.6398 C.ar    1  UNL1        0.1175
      8 N         143.1750  142.6511  167.8011 N.ar    1  UNL1       -0.2422
      9 C         143.2902  142.2511  166.3600 C.ar    1  UNL1        0.0828
     10 C         144.4138  142.7838  165.5213 C.ar    1  UNL1        0.0191
     11 C         144.5290  142.3838  164.0802 C.ar    1  UNL1        0.0017
     12 C         143.5205  141.4510  163.4779 C.ar    1  UNL1        0.0038
     13 C         142.3968  140.9183  164.3166 C.ar    1  UNL1        0.0031
     14 C         142.2816  141.3183  165.7576 C.ar    1  UNL1        0.0350
     15 C         141.1579  140.7855  166.5964 C.ar    1  UNL1        0.0826
     16 C         143.6357  141.0510  162.0367 C.ar    1  UNL1        0.0462
     17 C         143.3443  142.0493  160.9557 C.ar    1  UNL1        0.0086
     18 C         143.4595  141.6492  159.5146 C.ar    1  UNL1        0.0579
     19 C         143.8660  140.2510  159.1546 C.ar    1  UNL1        0.2268
     20 N         144.1574  139.2528  160.2357 N.ar    1  UNL1       -0.1832
     21 C         144.0422  139.6528  161.6767 C.ar    1  UNL1        0.2247
     22 F         144.3335  138.6545  162.7578 F       1  UNL1       -0.1831
     23 O         143.9812  139.8510  157.7135 O.3     1  UNL1       -0.4601
     24 C         142.7751  139.3509  156.9753 C.3     1  UNL1        0.2085
     25 C         142.0379  138.1433  157.4738 C.3     1  UNL1        0.0647
     26 C         142.7579  136.8369  157.6308 C.3     1  UNL1        0.0760
     27 N         143.0335  135.9833  156.4285 N.3     1  UNL1       -0.2702
     28 C         144.1978  136.2977  155.5365 C.3     1  UNL1        0.0897
     29 C         142.1449  134.8154  156.1182 C.3     1  UNL1        0.0897
     30 C         139.3689  138.3075  163.0739 C.3     1  UNL1        0.1191
     31 C         138.9101  139.5601  163.7599 C.3     1  UNL1        0.0524
     32 C         139.7519  139.2154  164.9525 C.3     1  UNL1        0.0947
     33 C         140.2108  137.9627  164.2666 C.3     1  UNL1        0.0524
     34 C         139.4913  138.3672  160.4794 C.3     1  UNL1        0.1740
     35 O         139.0980  137.6656  161.7455 O.3     1  UNL1       -0.3534
@<TRIPOS>BOND
     1    34    35    1
     2    30    35    1
     3    30    31    1
     4    31    32    1
     5    32     1    1
     6     1     2   ar
     7     2     3    2
     8     2     4   ar
     9     4     5    1
    10     4     6   ar
    11     6     7   ar
    12     7     8   ar
    13     8     9   ar
    14     9    10   ar
    15    10    11   ar
    16    11    12   ar
    17    12    16    1
    18    16    17   ar
    19    17    18   ar
    20    18    19   ar
    21    19    23    1
    22    23    24    1
    23    24    25    1
    24    25    26    1
    25    26    27    1
    26    27    28    1
    27    27    29    1
    28    19    20   ar
    29    20    21   ar
    30    21    22    1
    31    12    13   ar
    32    13    14   ar
    33    14    15   ar
    34    32    33    1
    35    33    30    1
    36    15     1   ar
    37    15     6   ar
    38    14     9   ar
    39    21    16   ar
@<TRIPOS>MOLECULE
*****
 35 39 0 0 0
SMALL
GASTEIGER

@<TRIPOS>ATOM
      1 N         142.4447  141.4576  167.5971 N.ar    1  UNL1       -0.2815
      2 C         142.9180  142.0546  168.8893 C.ar    1  UNL1        0.3316
      3 O         144.1882  142.8267  169.0908 O.2     1  UNL1       -0.2463
      4 N         141.8981  141.7441  169.9444 N.ar    1  UNL1       -0.2765
      5 C         141.9693  142.1511  171.3865 C.3     1  UNL1        0.1352
      6 C         140.7945  140.9551  169.3045 C.ar    1  UNL1        0.0989
      7 C         139.5256  140.3750  169.8553 C.ar    1  UNL1        0.1175
      8 N         138.5946  139.6178  168.9554 N.ar    1  UNL1       -0.2422
      9 C         138.9324  139.4408  167.5046 C.ar    1  UNL1        0.0828
     10 C         138.0013  138.6836  166.6048 C.ar    1  UNL1        0.0191
     11 C         138.3392  138.5066  165.1541 C.ar    1  UNL1        0.0017
     12 C         139.6081  139.0866  164.6033 C.ar    1  UNL1        0.0038
     13 C         140.5391  139.8438  165.5032 C.ar    1  UNL1        0.0031
     14 C         140.2013  140.0209  166.9538 C.ar    1  UNL1        0.0350
     15 C         141.1324  140.7780  167.8538 C.ar    1  UNL1        0.0826
     16 C         139.9459  138.9096  163.1526 C.ar    1  UNL1        0.0462
     17 C         139.4061  139.8695  162.1342 C.ar    1  UNL1        0.0086
     18 C         139.7439  139.6924  160.6835 C.ar    1  UNL1        0.0579
     19 C         140.6215  138.5554  160.2512 C.ar    1  UNL1        0.2268
     20 N         141.1613  137.5954  161.2696 N.ar    1  UNL1       -0.1832
     21 C         140.8235  137.7725  162.7203 C.ar    1  UNL1        0.2247
     22 F         141.3633  136.8125  163.7387 F       1  UNL1       -0.1831
     23 O         140.9594  138.3782  158.8005 O.3     1  UNL1       -0.4601
     24 C         139.8666  138.1526  157.7981 C.3     1  UNL1        0.2085
     25 C         139.7599  139.0388  156.5926 C.3     1  UNL1        0.0647
     26 C         138.8668  140.2436  156.6240 C.3     1  UNL1        0.0760
     27 N         137.5080  140.1865  155.9913 N.3     1  UNL1       -0.2702
     28 C         136.3578  140.9182  156.6174 C.3     1  UNL1        0.0897
     29 C         137.2992  139.3978  154.7326 C.3     1  UNL1        0.0897
     30 C         144.1679  141.6269  164.4166 C.3     1  UNL1        0.1191
     31 C         143.5421  142.6310  165.3387 C.3     1  UNL1        0.0524
     32 C         143.1585  141.5277  166.2797 C.3     1  UNL1        0.0947
     33 C         143.7843  140.5236  165.3577 C.3     1  UNL1        0.0524
     34 C         144.1029  141.9064  161.8344 C.3     1  UNL1        0.1740
     35 O         144.8817  141.6971  163.0992 O.3     1  UNL1       -0.3534
@<TRIPOS>BOND
     1    34    35    1
     2    30    35    1
     3    30    31    1
     4    31    32    1
     5    32     1    1
     6     1     2   ar
     7     2     3    2
     8     2     4   ar
     9     4     5    1
    10     4     6   ar
    11     6     7   ar
    12     7     8   ar
    13     8     9   ar
    14     9    10   ar
    15    10    11   ar
    16    11    12   ar
    17    12    16    1
    18    16    17   ar
    19    17    18   ar
    20    18    19   ar
    21    19    23    1
    22    23    24    1
    23    24    25    1
    24    25    26    1
    25    26    27    1
    26    27    28    1
    27    27    29    1
    28    19    20   ar
    29    20    21   ar
    30    21    22    1
    31    12    13   ar
    32    13    14   ar
    33    14    15   ar
    34    32    33    1
    35    33    30    1
    36    15     1   ar
    37    15     6   ar
    38    14     9   ar
    39    21    16   ar
@<TRIPOS>MOLECULE
*****
 35 39 0 0 0
SMALL
GASTEIGER

@<TRIPOS>ATOM
      1 N         139.9208  139.8500  166.3002 N.ar    1  UNL1       -0.2815
      2 C         139.1222  139.5850  167.5420 C.ar    1  UNL1        0.3316
      3 O         137.9190  138.6949  167.6433 O.2     1  UNL1       -0.2463
      4 N         139.7379  140.3663  168.6646 N.ar    1  UNL1       -0.2765
      5 C         139.2587  140.3947  170.0858 C.3     1  UNL1        0.1352
      6 C         140.9171  141.1142  168.1167 C.ar    1  UNL1        0.0989
      7 C         141.9025  142.0445  168.7596 C.ar    1  UNL1        0.1175
      8 N         143.0009  142.6558  167.9413 N.ar    1  UNL1       -0.2422
      9 C         143.1139  142.3368  166.4799 C.ar    1  UNL1        0.0828
     10 C         144.2124  142.9481  165.6615 C.ar    1  UNL1        0.0191
     11 C         144.3253  142.6290  164.2003 C.ar    1  UNL1        0.0017
     12 C         143.3399  141.6986  163.5573 C.ar    1  UNL1        0.0038
     13 C         142.2415  141.0873  164.3757 C.ar    1  UNL1        0.0031
     14 C         142.1285  141.4064  165.8370 C.ar    1  UNL1        0.0350
     15 C         141.0300  140.7951  166.6554 C.ar    1  UNL1        0.0826
     16 C         143.4529  141.3796  162.0960 C.ar    1  UNL1        0.0462
     17 C         143.0418  142.3960  161.0724 C.ar    1  UNL1        0.0086
     18 C         143.1548  142.0770  159.6110 C.ar    1  UNL1        0.0579
     19 C         143.6789  140.7414  159.1733 C.ar    1  UNL1        0.2268
     20 N         144.0901  139.7250  160.1970 N.ar    1  UNL1       -0.1832
     21 C         143.9770  140.0440  161.6583 C.ar    1  UNL1        0.2247
     22 F         144.3882  139.0275  162.6819 F       1  UNL1       -0.1831
     23 O         143.7920  140.4224  157.7121 O.3     1  UNL1       -0.4601
     24 C         145.0593  140.7333  156.9724 C.3     1  UNL1        0.2085
     25 C         145.4950  142.1579  156.7969 C.3     1  UNL1        0.0647
     26 C         146.9522  142.5090  156.8539 C.3     1  UNL1        0.0760
     27 N         147.7640  142.5484  155.5933 N.3     1  UNL1       -0.2702
     28 C         149.0094  141.7203  155.4769 C.3     1  UNL1        0.0897
     29 C         147.3306  143.4158  154.4489 C.3     1  UNL1        0.0897
     30 C         139.2826  138.4535  163.0205 C.3     1  UNL1        0.1191
     31 C         140.0844  138.0307  164.2157 C.3     1  UNL1        0.0524
     32 C         139.6564  139.2716  164.9417 C.3     1  UNL1        0.0947
     33 C         138.8546  139.6944  163.7465 C.3     1  UNL1        0.0524
     34 C         139.5431  138.5650  160.4379 C.3     1  UNL1        0.1740
     35 O         139.0183  137.8750  161.6620 O.3     1  UNL1       -0.3534
@<TRIPOS>BOND
     1    34    35    1
     2    30    35    1
     3    30    31    1
     4    31    32    1
     5    32     1    1
     6     1     2   ar
     7     2     3    2
     8     2     4   ar
     9     4     5    1
    10     4     6   ar
    11     6     7   ar
    12     7     8   ar
    13     8     9   ar
    14     9    10   ar
    15    10    11   ar
    16    11    12   ar
    17    12    16    1
    18    16    17   ar
    19    17    18   ar
    20    18    19   ar
    21    19    23    1
    22    23    24    1
    23    24    25    1
    24    25    26    1
    25    26    27    1
    26    27    28    1
    27    27    29    1
    28    19    20   ar
    29    20    21   ar
    30    21    22    1
    31    12    13   ar
    32    13    14   ar
    33    14    15   ar
    34    32    33    1
    35    33    30    1
    36    15     1   ar
    37    15     6   ar
    38    14     9   ar
    39    21    16   ar
@<TRIPOS>MOLECULE
*****
 35 39 0 0 0
SMALL
GASTEIGER

@<TRIPOS>ATOM
      1 N         139.9460  140.5866  166.8179 N.ar    1  UNL1       -0.2815
      2 C         139.4239  139.9647  168.0791 C.ar    1  UNL1        0.3316
      3 O         138.1629  139.1629  168.2103 O.2     1  UNL1       -0.2463
      4 N         140.3841  140.2852  169.1860 N.ar    1  UNL1       -0.2765
      5 C         140.2519  139.8603  170.6186 C.3     1  UNL1        0.1352
      6 C         141.4996  141.1053  168.6090 C.ar    1  UNL1        0.0989
      7 C         142.7270  141.7065  169.2271 C.ar    1  UNL1        0.1175
      8 N         143.6836  142.4940  168.3817 N.ar    1  UNL1       -0.2422
      9 C         143.4129  142.6802  166.9181 C.ar    1  UNL1        0.0828
     10 C         144.3695  143.4677  166.0727 C.ar    1  UNL1        0.0191
     11 C         144.0988  143.6539  164.6092 C.ar    1  UNL1        0.0017
     12 C         142.8714  143.0527  163.9910 C.ar    1  UNL1        0.0038
     13 C         141.9148  142.2653  164.8364 C.ar    1  UNL1        0.0031
     14 C         142.1855  142.0790  166.2999 C.ar    1  UNL1        0.0350
     15 C         141.2289  141.2915  167.1454 C.ar    1  UNL1        0.0826
     16 C         142.6007  143.2390  162.5274 C.ar    1  UNL1        0.0462
     17 C         142.9015  142.1310  161.5621 C.ar    1  UNL1        0.0086
     18 C         142.6308  142.3173  160.0985 C.ar    1  UNL1        0.0579
     19 C         142.0592  143.6116  159.6003 C.ar    1  UNL1        0.2268
     20 N         141.7584  144.7196  160.5657 N.ar    1  UNL1       -0.1832
     21 C         142.0291  144.5332  162.0292 C.ar    1  UNL1        0.2247
     22 F         141.7282  145.6412  162.9946 F       1  UNL1       -0.1831
     23 O         141.7885  143.7979  158.1368 O.3     1  UNL1       -0.4601
     24 C         142.1844  145.0753  157.4575 C.3     1  UNL1        0.2085
     25 C         141.2466  145.7309  156.4876 C.3     1  UNL1        0.0647
     26 C         139.7656  145.5427  156.6324 C.3     1  UNL1        0.0760
     27 N         138.8280  146.1965  155.6611 N.3     1  UNL1       -0.2702
     28 C         137.7742  145.3815  154.9714 C.3     1  UNL1        0.0897
     29 C         138.9440  147.6652  155.3795 C.3     1  UNL1        0.0897
     30 C         138.3836  140.4162  163.5554 C.3     1  UNL1        0.1191
     31 C         139.4075  139.5981  164.2852 C.3     1  UNL1        0.0524
     32 C         139.2989  140.5160  165.4665 C.3     1  UNL1        0.0947
     33 C         138.2750  141.3342  164.7368 C.3     1  UNL1        0.0524
     34 C         137.7061  139.0470  161.4540 C.3     1  UNL1        0.1740
     35 O         137.7365  140.3456  162.2040 O.3     1  UNL1       -0.3534
@<TRIPOS>BOND
     1    34    35    1
     2    30    35    1
     3    30    31    1
     4    31    32    1
     5    32     1    1
     6     1     2   ar
     7     2     3    2
     8     2     4   ar
     9     4     5    1
    10     4     6   ar
    11     6     7   ar
    12     7     8   ar
    13     8     9   ar
    14     9    10   ar
    15    10    11   ar
    16    11    12   ar
    17    12    16    1
    18    16    17   ar
    19    17    18   ar
    20    18    19   ar
    21    19    23    1
    22    23    24    1
    23    24    25    1
    24    25    26    1
    25    26    27    1
    26    27    28    1
    27    27    29    1
    28    19    20   ar
    29    20    21   ar
    30    21    22    1
    31    12    13   ar
    32    13    14   ar
    33    14    15   ar
    34    32    33    1
    35    33    30    1
    36    15     1   ar
    37    15     6   ar
    38    14     9   ar
    39    21    16   ar
@<TRIPOS>MOLECULE
*****
 35 39 0 0 0
SMALL
GASTEIGER

@<TRIPOS>ATOM
      1 N         142.2744  141.5127  167.6472 N.ar    1  UNL1       -0.2815
      2 C         142.9159  142.1235  168.8577 C.ar    1  UNL1        0.3316
      3 O         144.2047  142.8908  168.8802 O.2     1  UNL1       -0.2463
      4 N         142.0425  141.8322  170.0419 N.ar    1  UNL1       -0.2765
      5 C         142.3044  142.2571  171.4565 C.3     1  UNL1        0.1352
      6 C         140.8612  141.0414  169.5632 C.ar    1  UNL1        0.0989
      7 C         139.6734  140.4757  170.2837 C.ar    1  UNL1        0.1175
      8 N         138.6291  139.7125  169.5243 N.ar    1  UNL1       -0.2422
      9 C         138.7724  139.5150  168.0442 C.ar    1  UNL1        0.0828
     10 C         137.7281  138.7518  167.2848 C.ar    1  UNL1        0.0191
     11 C         137.8715  138.5543  165.8048 C.ar    1  UNL1        0.0017
     12 C         139.0592  139.1201  165.0842 C.ar    1  UNL1        0.0038
     13 C         140.1036  139.8833  165.8437 C.ar    1  UNL1        0.0031
     14 C         139.9602  140.0808  167.3237 C.ar    1  UNL1        0.0350
     15 C         141.0046  140.8440  168.0832 C.ar    1  UNL1        0.0826
     16 C         139.2026  138.9226  163.6042 C.ar    1  UNL1        0.0462
     17 C         140.2970  138.0491  163.0666 C.ar    1  UNL1        0.0086
     18 C         140.4404  137.8516  161.5865 C.ar    1  UNL1        0.0579
     19 C         139.4892  138.5277  160.6441 C.ar    1  UNL1        0.2268
     20 N         138.3947  139.4013  161.1817 N.ar    1  UNL1       -0.1832
     21 C         138.2514  139.5988  162.6617 C.ar    1  UNL1        0.2247
     22 F         137.1569  140.4724  163.1994 F       1  UNL1       -0.1831
     23 O         139.6325  138.3303  159.1641 O.3     1  UNL1       -0.4601
     24 C         139.6733  139.5184  158.2495 C.3     1  UNL1        0.2085
     25 C         140.7704  140.5324  158.3855 C.3     1  UNL1        0.0647
     26 C         140.4353  141.9910  158.4860 C.3     1  UNL1        0.0760
     27 N         139.0190  142.4200  158.7306 N.3     1  UNL1       -0.2702
     28 C         138.5411  142.6663  160.1310 C.3     1  UNL1        0.0897
     29 C         138.0805  142.6028  157.5748 C.3     1  UNL1        0.0897
     30 C         143.5651  141.6317  164.2657 C.3     1  UNL1        0.1191
     31 C         142.9020  142.6159  165.1832 C.3     1  UNL1        0.0524
     32 C         142.8090  141.5620  166.2465 C.3     1  UNL1        0.0947
     33 C         143.4721  140.5777  165.3291 C.3     1  UNL1        0.0524
     34 C         145.5281  142.0681  162.6207 C.3     1  UNL1        0.1740
     35 O         144.0996  141.6810  162.8651 O.3     1  UNL1       -0.3534
@<TRIPOS>BOND
     1    34    35    1
     2    30    35    1
     3    30    31    1
     4    31    32    1
     5    32     1    1
     6     1     2   ar
     7     2     3    2
     8     2     4   ar
     9     4     5    1
    10     4     6   ar
    11     6     7   ar
    12     7     8   ar
    13     8     9   ar
    14     9    10   ar
    15    10    11   ar
    16    11    12   ar
    17    12    16    1
    18    16    17   ar
    19    17    18   ar
    20    18    19   ar
    21    19    23    1
    22    23    24    1
    23    24    25    1
    24    25    26    1
    25    26    27    1
    26    27    28    1
    27    27    29    1
    28    19    20   ar
    29    20    21   ar
    30    21    22    1
    31    12    13   ar
    32    13    14   ar
    33    14    15   ar
    34    32    33    1
    35    33    30    1
    36    15     1   ar
    37    15     6   ar
    38    14     9   ar
    39    21    16   ar
@<TRIPOS>MOLECULE
*****
 35 39 0 0 0
SMALL
GASTEIGER

@<TRIPOS>ATOM
      1 N         140.8720  143.1548  160.3552 N.ar    1  UNL1       -0.2815
      2 C         140.6807  144.0204  159.1451 C.ar    1  UNL1        0.3316
      3 O         141.3599  145.3319  158.8830 O.2     1  UNL1       -0.2463
      4 N         139.6911  143.3441  158.2433 N.ar    1  UNL1       -0.2765
      5 C         139.2068  143.8607  156.9208 C.3     1  UNL1        0.1352
      6 C         139.2708  142.0607  158.8959 C.ar    1  UNL1        0.0989
      7 C         138.3177  140.9834  158.4703 C.ar    1  UNL1        0.1175
      8 N         138.0945  139.7891  159.3500 N.ar    1  UNL1       -0.2422
      9 C         138.8244  139.6720  160.6552 C.ar    1  UNL1        0.0828
     10 C         138.6012  138.4777  161.5348 C.ar    1  UNL1        0.0191
     11 C         139.3310  138.3607  162.8400 C.ar    1  UNL1        0.0017
     12 C         140.2841  139.4380  163.2656 C.ar    1  UNL1        0.0038
     13 C         140.5073  140.6323  162.3860 C.ar    1  UNL1        0.0031
     14 C         139.7774  140.7493  161.0808 C.ar    1  UNL1        0.0350
     15 C         140.0006  141.9437  160.2011 C.ar    1  UNL1        0.0826
     16 C         141.0139  139.3209  164.5709 C.ar    1  UNL1        0.0462
     17 C         142.3454  138.6324  164.6266 C.ar    1  UNL1        0.0086
     18 C         143.0753  138.5154  165.9319 C.ar    1  UNL1        0.0579
     19 C         142.4736  139.0869  167.1814 C.ar    1  UNL1        0.2268
     20 N         141.1421  139.7754  167.1257 N.ar    1  UNL1       -0.1832
     21 C         140.4123  139.8924  165.8205 C.ar    1  UNL1        0.2247
     22 F         139.0808  140.5810  165.7647 F       1  UNL1       -0.1831
     23 O         143.2034  138.9698  168.4866 O.3     1  UNL1       -0.4601
     24 C         142.4677  139.1726  169.7780 C.3     1  UNL1        0.2085
     25 C         142.6113  140.4636  170.5282 C.3     1  UNL1        0.0647
     26 C         141.4018  141.1279  171.1162 C.3     1  UNL1        0.0760
     27 N         140.2941  141.5973  170.2203 N.3     1  UNL1       -0.2702
     28 C         140.3832  142.9403  169.5580 C.3     1  UNL1        0.0897
     29 C         139.0972  140.7239  169.9866 C.3     1  UNL1        0.0897
     30 C         143.0544  143.8645  163.1565 C.3     1  UNL1        0.1191
     31 C         143.2217  143.1952  161.8246 C.3     1  UNL1        0.0524
     32 C         141.7760  143.4487  161.5155 C.3     1  UNL1        0.0947
     33 C         141.6086  144.1181  162.8475 C.3     1  UNL1        0.0524
     34 C         144.0866  143.1693  165.4371 C.3     1  UNL1        0.1740
     35 O         143.9583  144.1585  164.3169 O.3     1  UNL1       -0.3534
@<TRIPOS>BOND
     1    34    35    1
     2    30    35    1
     3    30    31    1
     4    31    32    1
     5    32     1    1
     6     1     2   ar
     7     2     3    2
     8     2     4   ar
     9     4     5    1
    10     4     6   ar
    11     6     7   ar
    12     7     8   ar
    13     8     9   ar
    14     9    10   ar
    15    10    11   ar
    16    11    12   ar
    17    12    16    1
    18    16    17   ar
    19    17    18   ar
    20    18    19   ar
    21    19    23    1
    22    23    24    1
    23    24    25    1
    24    25    26    1
    25    26    27    1
    26    27    28    1
    27    27    29    1
    28    19    20   ar
    29    20    21   ar
    30    21    22    1
    31    12    13   ar
    32    13    14   ar
    33    14    15   ar
    34    32    33    1
    35    33    30    1
    36    15     1   ar
    37    15     6   ar
    38    14     9   ar
    39    21    16   ar
