@<TRIPOS>MOLECULE
*****
 36 38 0 0 0
SMALL
GASTEIGER

@<TRIPOS>ATOM
      1 N         139.2399  140.0894  159.8569 N.3     1  UNL1       -0.2705
      2 C         140.1517  139.2161  160.6669 C.3     1  UNL1        0.0739
      3 C         140.1065  139.2704  162.1652 C.3     1  UNL1        0.0394
      4 C         139.1494  140.1978  162.8536 C.3     1  UNL1        0.1017
      5 C         138.2376  141.0711  162.0437 C.3     1  UNL1        0.1490
      6 C         138.2828  141.0169  160.5453 C.3     1  UNL1        0.1037
      7 N         139.1042  140.2520  164.3520 N.am    1  UNL1       -0.2999
      8 C         140.0465  141.1488  165.0988 C.2     1  UNL1        0.2488
      9 O         141.0340  141.9914  164.3473 O.2     1  UNL1       -0.2700
     10 H         138.4560  139.6990  164.8452 H       1  UNL1        0.1498
     11 C         140.0012  141.2030  166.5971 C.ar    1  UNL1        0.0882
     12 C         140.5418  142.4004  167.3210 C.ar    1  UNL1        0.0202
     13 C         140.4965  142.4546  168.8193 C.ar    1  UNL1        0.0709
     14 CL        141.0371  143.6520  169.5432 Cl      1  UNL1       -0.0810
     15 C         139.9107  141.3114  169.5938 C.ar    1  UNL1        0.0553
     16 N         139.8655  141.3655  171.0921 N.pl3   1  UNL1       -0.3563
     17 C         139.3702  140.1139  168.8700 C.ar    1  UNL1        0.0520
     18 C         139.4154  140.0597  167.3716 C.ar    1  UNL1        0.1443
     19 H         140.2203  142.1514  171.5672 H       1  UNL1        0.1424
     20 H         139.4810  140.6152  171.6004 H       1  UNL1        0.1424
     21 O         138.8748  138.8623  166.6478 O.3     1  UNL1       -0.4712
     22 C         137.5410  138.2932  167.0311 C.3     1  UNL1        0.2525
     23 O         137.2806  141.9985  162.7320 O.3     1  UNL1       -0.3505
     24 C         137.6963  143.4042  163.0504 C.3     1  UNL1        0.1741
     25 C         139.2851  140.0352  158.3586 C.3     1  UNL1        0.0722
     26 C         143.4499  136.7107  155.6013 C.2     1  UNL1        0.2256
     27 O         144.8643  137.2022  155.5130 O.2     1  UNL1       -0.2749
     28 N         142.4087  137.5418  156.2906 N.am    1  UNL1       -0.2795
     29 C         140.9943  137.0503  156.3790 C.3     1  UNL1        0.0934
     30 C         139.9531  137.8814  157.0683 C.3     1  UNL1        0.0229
     31 C         140.3263  139.2040  157.6693 C.3     1  UNL1        0.0194
     32 C         141.7407  139.6956  157.5810 C.3     1  UNL1        0.0229
     33 C         142.7819  138.8645  156.8916 C.3     1  UNL1        0.0934
     34 C         143.0767  135.3880  155.0003 C.3     1  UNL1        0.0853
     35 C         143.3310  134.1621  157.2769 C.3     1  UNL1        0.0005
     36 C         143.2921  134.1234  155.7778 C.3     1  UNL1        0.0096
@<TRIPOS>BOND
     1    35    36    1
     2    36    34    1
     3    34    26    1
     4    26    27    2
     5    26    28   am
     6    28    29    1
     7    29    30    1
     8    30    31    1
     9    31    25    1
    10    25     1    1
    11     1     2    1
    12     2     3    1
    13     3     4    1
    14     4     7    1
    15     7     8   am
    16     8     9    2
    17     8    11    1
    18    11    12   ar
    19    12    13   ar
    20    13    14    1
    21    13    15   ar
    22    15    16    1
    23    15    17   ar
    24    17    18   ar
    25    18    21    1
    26    21    22    1
    27     4     5    1
    28     5    23    1
    29    23    24    1
    30     5     6    1
    31    31    32    1
    32    32    33    1
    33    33    28    1
    34     6     1    1
    35    18    11   ar
    36     7    10    1
    37    16    19    1
    38    16    20    1
@<TRIPOS>MOLECULE
*****
 36 38 0 0 0
SMALL
GASTEIGER

@<TRIPOS>ATOM
      1 N         141.3517  138.1345  157.8650 N.3     1  UNL1       -0.2705
      2 C         139.9103  138.2330  158.2687 C.3     1  UNL1        0.0739
      3 C         139.5490  138.6344  159.6680 C.3     1  UNL1        0.0394
      4 C         140.6291  138.9373  160.6639 C.3     1  UNL1        0.1017
      5 C         142.0704  138.8389  160.2603 C.3     1  UNL1        0.1490
      6 C         142.4317  138.4375  158.8609 C.3     1  UNL1        0.1037
      7 N         140.2678  139.3388  162.0633 N.am    1  UNL1       -0.2999
      8 C         140.3147  138.3269  163.1696 C.2     1  UNL1        0.2488
      9 O         140.7230  136.9136  162.8765 O.2     1  UNL1       -0.2700
     10 H         139.9998  140.2663  162.2557 H       1  UNL1        0.1498
     11 C         139.9534  138.7283  164.5690 C.ar    1  UNL1        0.0882
     12 C         138.7405  138.1414  165.2282 C.ar    1  UNL1        0.0202
     13 C         138.3792  138.5428  166.6275 C.ar    1  UNL1        0.0709
     14 CL        137.1664  137.9558  167.2866 Cl      1  UNL1       -0.0810
     15 C         139.2307  139.5312  167.3678 C.ar    1  UNL1        0.0553
     16 N         138.8694  139.9327  168.7671 N.pl3   1  UNL1       -0.3563
     17 C         140.4435  140.1182  166.7087 C.ar    1  UNL1        0.0520
     18 C         140.8049  139.7167  165.3092 C.ar    1  UNL1        0.1443
     19 H         138.0734  139.5474  169.1997 H       1  UNL1        0.1424
     20 H         139.4283  140.5814  169.2530 H       1  UNL1        0.1424
     21 O         142.0177  140.3037  164.6501 O.3     1  UNL1       -0.4712
     22 C         143.3803  139.7639  164.9697 C.3     1  UNL1        0.2525
     23 O         143.1504  139.1419  161.2562 O.3     1  UNL1       -0.3505
     24 C         144.0739  138.0527  161.7157 C.3     1  UNL1        0.1741
     25 C         141.7129  137.7331  156.4657 C.3     1  UNL1        0.0722
     26 C         143.2303  132.0524  155.2711 C.2     1  UNL1        0.2256
     27 O         142.3024  131.1787  154.4803 O.2     1  UNL1       -0.2749
     28 N         142.8510  133.4726  155.5698 N.am    1  UNL1       -0.2795
     29 C         143.7789  134.3463  156.3606 C.3     1  UNL1        0.0934
     30 C         143.3995  135.7665  156.6593 C.3     1  UNL1        0.0229
     31 C         142.0923  136.3129  156.1670 C.3     1  UNL1        0.0194
     32 C         141.1643  135.4392  155.3762 C.3     1  UNL1        0.0229
     33 C         141.5437  134.0190  155.0775 C.3     1  UNL1        0.0934
     34 C         144.5376  131.5059  155.7634 C.3     1  UNL1        0.0853
     35 C         143.7783  129.8821  157.6440 C.3     1  UNL1        0.0005
     36 C         144.5891  130.1542  156.4116 C.3     1  UNL1        0.0096
@<TRIPOS>BOND
     1    35    36    1
     2    36    34    1
     3    34    26    1
     4    26    27    2
     5    26    28   am
     6    28    29    1
     7    29    30    1
     8    30    31    1
     9    31    25    1
    10    25     1    1
    11     1     2    1
    12     2     3    1
    13     3     4    1
    14     4     7    1
    15     7     8   am
    16     8     9    2
    17     8    11    1
    18    11    12   ar
    19    12    13   ar
    20    13    14    1
    21    13    15   ar
    22    15    16    1
    23    15    17   ar
    24    17    18   ar
    25    18    21    1
    26    21    22    1
    27     4     5    1
    28     5    23    1
    29    23    24    1
    30     5     6    1
    31    31    32    1
    32    32    33    1
    33    33    28    1
    34     6     1    1
    35    18    11   ar
    36     7    10    1
    37    16    19    1
    38    16    20    1
@<TRIPOS>MOLECULE
*****
 36 38 0 0 0
SMALL
GASTEIGER

@<TRIPOS>ATOM
      1 N         140.8180  140.6722  160.1650 N.3     1  UNL1       -0.2705
      2 C         141.6758  141.6062  160.9665 C.3     1  UNL1        0.0739
      3 C         141.5116  141.6838  162.4554 C.3     1  UNL1        0.0394
      4 C         140.4898  140.8276  163.1430 C.3     1  UNL1        0.1017
      5 C         139.6321  139.8937  162.3417 C.3     1  UNL1        0.1490
      6 C         139.7962  139.8160  160.8526 C.3     1  UNL1        0.1037
      7 N         140.3257  140.9053  164.6320 N.am    1  UNL1       -0.2999
      8 C         141.1669  140.0425  165.5253 C.2     1  UNL1        0.2488
      9 O         142.1723  139.1021  164.9296 O.2     1  UNL1       -0.2700
     10 H         139.6659  141.5225  165.0230 H       1  UNL1        0.1498
     11 C         141.0028  140.1203  167.0142 C.ar    1  UNL1        0.0882
     12 C         142.1972  140.3623  167.8889 C.ar    1  UNL1        0.0202
     13 C         142.0331  140.4400  169.3778 C.ar    1  UNL1        0.0709
     14 CL        143.2275  140.6820  170.2523 Cl      1  UNL1       -0.0810
     15 C         140.6746  140.2757  169.9922 C.ar    1  UNL1        0.0553
     16 N         140.5105  140.3534  171.4811 N.pl3   1  UNL1       -0.3563
     17 C         139.4802  140.0337  169.1177 C.ar    1  UNL1        0.0520
     18 C         139.6443  139.9560  167.6286 C.ar    1  UNL1        0.1443
     19 H         141.2944  140.5123  172.0551 H       1  UNL1        0.1424
     20 H         139.6188  140.2456  171.8844 H       1  UNL1        0.1424
     21 O         138.4499  139.7139  166.7541 O.3     1  UNL1       -0.4712
     22 C         137.6790  138.4329  166.8751 C.3     1  UNL1        0.2525
     23 O         138.6103  139.0375  163.0292 O.3     1  UNL1       -0.3505
     24 C         138.9289  137.6097  163.3610 C.3     1  UNL1        0.1741
     25 C         140.9822  140.5946  158.6761 C.3     1  UNL1        0.0722
     26 C         142.0254  135.3043  156.0447 C.2     1  UNL1        0.2256
     27 O         141.0063  134.7151  155.1150 O.2     1  UNL1       -0.2749
     28 N         141.7646  136.6269  156.7026 N.am    1  UNL1       -0.2795
     29 C         142.7837  137.2160  157.6322 C.3     1  UNL1        0.0934
     30 C         142.5229  138.5386  158.2901 C.3     1  UNL1        0.0229
     31 C         141.2430  139.2720  158.0183 C.3     1  UNL1        0.0194
     32 C         140.2239  138.6829  157.0886 C.3     1  UNL1        0.0229
     33 C         140.4847  137.3603  156.4307 C.3     1  UNL1        0.0934
     34 C         143.3053  134.5709  156.3165 C.3     1  UNL1        0.0853
     35 C         143.0367  132.0475  156.8740 C.3     1  UNL1        0.0005
     36 C         143.3307  133.4511  157.3143 C.3     1  UNL1        0.0096
@<TRIPOS>BOND
     1    35    36    1
     2    36    34    1
     3    34    26    1
     4    26    27    2
     5    26    28   am
     6    28    29    1
     7    29    30    1
     8    30    31    1
     9    31    25    1
    10    25     1    1
    11     1     2    1
    12     2     3    1
    13     3     4    1
    14     4     7    1
    15     7     8   am
    16     8     9    2
    17     8    11    1
    18    11    12   ar
    19    12    13   ar
    20    13    14    1
    21    13    15   ar
    22    15    16    1
    23    15    17   ar
    24    17    18   ar
    25    18    21    1
    26    21    22    1
    27     4     5    1
    28     5    23    1
    29    23    24    1
    30     5     6    1
    31    31    32    1
    32    32    33    1
    33    33    28    1
    34     6     1    1
    35    18    11   ar
    36     7    10    1
    37    16    19    1
    38    16    20    1
@<TRIPOS>MOLECULE
*****
 36 38 0 0 0
SMALL
GASTEIGER

@<TRIPOS>ATOM
      1 N         142.5870  142.8401  160.7323 N.3     1  UNL1       -0.2705
      2 C         143.1314  143.6214  161.8913 C.3     1  UNL1        0.0739
      3 C         142.6716  143.3136  163.2855 C.3     1  UNL1        0.0394
      4 C         141.6675  142.2245  163.5208 C.3     1  UNL1        0.1017
      5 C         141.1231  141.4431  162.3619 C.3     1  UNL1        0.1490
      6 C         141.5828  141.7509  160.9676 C.3     1  UNL1        0.1037
      7 N         141.2077  141.9167  164.9151 N.am    1  UNL1       -0.2999
      8 C         141.8835  140.8363  165.7063 C.2     1  UNL1        0.2488
      9 O         143.0191  140.0637  165.1033 O.2     1  UNL1       -0.2700
     10 H         140.4624  142.4237  165.3109 H       1  UNL1        0.1498
     11 C         141.4238  140.5286  167.1005 C.ar    1  UNL1        0.0882
     12 C         142.4290  140.3501  168.1996 C.ar    1  UNL1        0.0202
     13 C         141.9692  140.0424  169.5938 C.ar    1  UNL1        0.0709
     14 CL        142.9744  139.8639  170.6927 Cl      1  UNL1       -0.0810
     15 C         140.5043  139.9131  169.8891 C.ar    1  UNL1        0.0553
     16 N         140.0445  139.6053  171.2833 N.pl3   1  UNL1       -0.3563
     17 C         139.4991  140.0915  168.7901 C.ar    1  UNL1        0.0520
     18 C         139.9588  140.3992  167.3958 C.ar    1  UNL1        0.1443
     19 H         140.7043  139.4882  172.0046 H       1  UNL1        0.1424
     20 H         139.0830  139.5204  171.4771 H       1  UNL1        0.1424
     21 O         138.9536  140.5777  166.2969 O.3     1  UNL1       -0.4712
     22 C         138.2194  139.3887  165.7517 C.3     1  UNL1        0.2525
     23 O         140.1189  140.3539  162.5973 O.3     1  UNL1       -0.3505
     24 C         140.5743  138.9316  162.7379 C.3     1  UNL1        0.1741
     25 C         143.0467  143.1479  159.3381 C.3     1  UNL1        0.0722
     26 C         139.9193  146.9615  155.9212 C.2     1  UNL1        0.2256
     27 O         138.8117  147.7736  156.5242 O.2     1  UNL1       -0.2749
     28 N         140.7012  146.0081  156.7754 N.am    1  UNL1       -0.2795
     29 C         141.8088  145.1961  156.1723 C.3     1  UNL1        0.0934
     30 C         142.5906  144.2427  157.0266 C.3     1  UNL1        0.0229
     31 C         142.2649  144.1013  158.4839 C.3     1  UNL1        0.0194
     32 C         141.1573  144.9133  159.0870 C.3     1  UNL1        0.0229
     33 C         140.3754  145.8667  158.2327 C.3     1  UNL1        0.0934
     34 C         140.2451  147.1029  154.4638 C.3     1  UNL1        0.0853
     35 C         140.8674  148.8657  152.6596 C.3     1  UNL1        0.0005
     36 C         139.9557  148.3912  153.7522 C.3     1  UNL1        0.0096
@<TRIPOS>BOND
     1    35    36    1
     2    36    34    1
     3    34    26    1
     4    26    27    2
     5    26    28   am
     6    28    29    1
     7    29    30    1
     8    30    31    1
     9    31    25    1
    10    25     1    1
    11     1     2    1
    12     2     3    1
    13     3     4    1
    14     4     7    1
    15     7     8   am
    16     8     9    2
    17     8    11    1
    18    11    12   ar
    19    12    13   ar
    20    13    14    1
    21    13    15   ar
    22    15    16    1
    23    15    17   ar
    24    17    18   ar
    25    18    21    1
    26    21    22    1
    27     4     5    1
    28     5    23    1
    29    23    24    1
    30     5     6    1
    31    31    32    1
    32    32    33    1
    33    33    28    1
    34     6     1    1
    35    18    11   ar
    36     7    10    1
    37    16    19    1
    38    16    20    1
@<TRIPOS>MOLECULE
*****
 36 38 0 0 0
SMALL
GASTEIGER

@<TRIPOS>ATOM
      1 N         139.5361  139.4850  160.2024 N.3     1  UNL1       -0.2705
      2 C         139.9191  140.8834  160.5870 C.3     1  UNL1        0.0739
      3 C         140.2663  141.2011  162.0112 C.3     1  UNL1        0.0394
      4 C         140.2306  140.1205  163.0509 C.3     1  UNL1        0.1017
      5 C         139.8476  138.7221  162.6664 C.3     1  UNL1        0.1490
      6 C         139.5004  138.4043  161.2421 C.3     1  UNL1        0.1037
      7 N         140.5778  140.4383  164.4752 N.am    1  UNL1       -0.2999
      8 C         141.9958  140.3116  164.9476 C.2     1  UNL1        0.2488
      9 O         143.0666  139.8672  163.9958 O.2     1  UNL1       -0.2700
     10 H         139.8751  140.7300  165.0999 H       1  UNL1        0.1498
     11 C         142.3430  140.6294  166.3718 C.ar    1  UNL1        0.0882
     12 C         142.2007  139.5771  167.4313 C.ar    1  UNL1        0.0202
     13 C         142.5478  139.8949  168.8555 C.ar    1  UNL1        0.0709
     14 CL        142.4055  138.8425  169.9148 Cl      1  UNL1       -0.0810
     15 C         143.0374  141.2650  169.2203 C.ar    1  UNL1        0.0553
     16 N         143.3846  141.5828  170.6445 N.pl3   1  UNL1       -0.3563
     17 C         143.1798  142.3173  168.1610 C.ar    1  UNL1        0.0520
     18 C         142.8326  141.9996  166.7367 C.ar    1  UNL1        0.1443
     19 H         143.2911  140.8921  171.3399 H       1  UNL1        0.1424
     20 H         143.7059  142.4820  170.8840 H       1  UNL1        0.1424
     21 O         142.9750  143.0519  165.6773 O.3     1  UNL1       -0.4712
     22 C         144.2949  143.2546  164.9941 C.3     1  UNL1        0.2525
     23 O         139.8119  137.6415  163.7061 O.3     1  UNL1       -0.3505
     24 C         141.0596  136.8773  164.0367 C.3     1  UNL1        0.1741
     25 C         139.1889  139.1672  158.7782 C.3     1  UNL1        0.0722
     26 C         143.1179  136.2420  155.3132 C.2     1  UNL1        0.2256
     27 O         144.5896  136.3761  155.5701 O.2     1  UNL1       -0.2749
     28 N         142.1356  136.9733  156.1795 N.am    1  UNL1       -0.2795
     29 C         140.6639  136.8391  155.9226 C.3     1  UNL1        0.0934
     30 C         139.6817  137.5705  156.7889 C.3     1  UNL1        0.0229
     31 C         140.1711  138.4359  157.9119 C.3     1  UNL1        0.0194
     32 C         141.6428  138.5700  158.1688 C.3     1  UNL1        0.0229
     33 C         142.6251  137.8387  157.3026 C.3     1  UNL1        0.0934
     34 C         142.6284  135.3765  154.1902 C.3     1  UNL1        0.0853
     35 C         142.3813  133.3793  155.8334 C.3     1  UNL1        0.0005
     36 C         142.3021  133.9343  154.4421 C.3     1  UNL1        0.0096
@<TRIPOS>BOND
     1    35    36    1
     2    36    34    1
     3    34    26    1
     4    26    27    2
     5    26    28   am
     6    28    29    1
     7    29    30    1
     8    30    31    1
     9    31    25    1
    10    25     1    1
    11     1     2    1
    12     2     3    1
    13     3     4    1
    14     4     7    1
    15     7     8   am
    16     8     9    2
    17     8    11    1
    18    11    12   ar
    19    12    13   ar
    20    13    14    1
    21    13    15   ar
    22    15    16    1
    23    15    17   ar
    24    17    18   ar
    25    18    21    1
    26    21    22    1
    27     4     5    1
    28     5    23    1
    29    23    24    1
    30     5     6    1
    31    31    32    1
    32    32    33    1
    33    33    28    1
    34     6     1    1
    35    18    11   ar
    36     7    10    1
    37    16    19    1
    38    16    20    1
@<TRIPOS>MOLECULE
*****
 36 38 0 0 0
SMALL
GASTEIGER

@<TRIPOS>ATOM
      1 N         141.5385  138.0784  157.8620 N.3     1  UNL1       -0.2705
      2 C         142.6432  138.2835  158.8557 C.3     1  UNL1        0.0739
      3 C         142.3216  138.7091  160.2576 C.3     1  UNL1        0.0394
      4 C         140.8951  138.9297  160.6658 C.3     1  UNL1        0.1017
      5 C         139.7904  138.7247  159.6721 C.3     1  UNL1        0.1490
      6 C         140.1120  138.2990  158.2702 C.3     1  UNL1        0.1037
      7 N         140.5734  139.3554  162.0678 N.am    1  UNL1       -0.2999
      8 C         140.4776  138.3310  163.1593 C.2     1  UNL1        0.2488
      9 O         140.7035  136.8810  162.8489 O.2     1  UNL1       -0.2700
     10 H         140.4252  140.3071  162.2715 H       1  UNL1        0.1498
     11 C         140.1560  138.7567  164.5611 C.ar    1  UNL1        0.0882
     12 C         138.8873  138.2929  165.2134 C.ar    1  UNL1        0.0202
     13 C         138.5657  138.7186  166.6153 C.ar    1  UNL1        0.0709
     14 CL        137.2971  138.2547  167.2675 Cl      1  UNL1       -0.0810
     15 C         139.5126  139.6081  167.3650 C.ar    1  UNL1        0.0553
     16 N         139.1910  140.0338  168.7668 N.pl3   1  UNL1       -0.3563
     17 C         140.7812  140.0720  166.7127 C.ar    1  UNL1        0.0520
     18 C         141.1029  139.6463  165.3108 C.ar    1  UNL1        0.1443
     19 H         138.3583  139.7294  169.1949 H       1  UNL1        0.1424
     20 H         139.8125  140.6177  169.2588 H       1  UNL1        0.1424
     21 O         142.3715  140.1102  164.6586 O.3     1  UNL1       -0.4712
     22 C         142.5307  141.5494  164.2669 C.3     1  UNL1        0.2525
     23 O         138.3639  138.9452  160.0803 O.3     1  UNL1       -0.3505
     24 C         137.7189  140.2815  159.8601 C.3     1  UNL1        0.1741
     25 C         141.8602  137.6527  156.4601 C.3     1  UNL1        0.0722
     26 C         143.1754  131.9160  155.2938 C.2     1  UNL1        0.2256
     27 O         142.1861  131.0521  154.5694 O.2     1  UNL1       -0.2749
     28 N         142.8466  133.3502  155.5854 N.am    1  UNL1       -0.2795
     29 C         143.8360  134.2142  156.3097 C.3     1  UNL1        0.0934
     30 C         143.5071  135.6484  156.6013 C.3     1  UNL1        0.0229
     31 C         142.1890  136.2186  156.1685 C.3     1  UNL1        0.0194
     32 C         141.1997  135.3546  155.4442 C.3     1  UNL1        0.0229
     33 C         141.5285  133.9204  155.1526 C.3     1  UNL1        0.0934
     34 C         144.4936  131.3458  155.7265 C.3     1  UNL1        0.0853
     35 C         143.7586  129.8375  157.7101 C.3     1  UNL1        0.0005
     36 C         144.5419  130.0303  156.4455 C.3     1  UNL1        0.0096
@<TRIPOS>BOND
     1    35    36    1
     2    36    34    1
     3    34    26    1
     4    26    27    2
     5    26    28   am
     6    28    29    1
     7    29    30    1
     8    30    31    1
     9    31    25    1
    10    25     1    1
    11     1     2    1
    12     2     3    1
    13     3     4    1
    14     4     7    1
    15     7     8   am
    16     8     9    2
    17     8    11    1
    18    11    12   ar
    19    12    13   ar
    20    13    14    1
    21    13    15   ar
    22    15    16    1
    23    15    17   ar
    24    17    18   ar
    25    18    21    1
    26    21    22    1
    27     4     5    1
    28     5    23    1
    29    23    24    1
    30     5     6    1
    31    31    32    1
    32    32    33    1
    33    33    28    1
    34     6     1    1
    35    18    11   ar
    36     7    10    1
    37    16    19    1
    38    16    20    1
@<TRIPOS>MOLECULE
*****
 36 38 0 0 0
SMALL
GASTEIGER

@<TRIPOS>ATOM
      1 N         142.6724  143.1339  160.1007 N.3     1  UNL1       -0.2705
      2 C         143.3370  141.9898  160.8074 C.3     1  UNL1        0.0739
      3 C         143.1037  141.7766  162.2737 C.3     1  UNL1        0.0394
      4 C         142.2058  142.7076  163.0334 C.3     1  UNL1        0.1017
      5 C         141.5412  143.8517  162.3267 C.3     1  UNL1        0.1490
      6 C         141.7745  144.0648  160.8603 C.3     1  UNL1        0.1037
      7 N         141.9725  142.4944  164.4997 N.am    1  UNL1       -0.2999
      8 C         140.6860  141.8861  164.9739 C.2     1  UNL1        0.2488
      9 O         139.6328  141.4909  163.9817 O.2     1  UNL1       -0.2700
     10 H         142.6638  142.7538  165.1510 H       1  UNL1        0.1498
     11 C         140.4528  141.6730  166.4402 C.ar    1  UNL1        0.0882
     12 C         140.5811  142.8228  167.3950 C.ar    1  UNL1        0.0202
     13 C         140.3479  142.6096  168.8613 C.ar    1  UNL1        0.0709
     14 CL        140.4761  143.7594  169.8160 Cl      1  UNL1       -0.0810
     15 C         139.9863  141.2467  169.3729 C.ar    1  UNL1        0.0553
     16 N         139.7531  141.0336  170.8392 N.pl3   1  UNL1       -0.3563
     17 C         139.8581  140.0969  168.4182 C.ar    1  UNL1        0.0520
     18 C         140.0913  140.3100  166.9518 C.ar    1  UNL1        0.1443
     19 H         139.8373  141.7882  171.4658 H       1  UNL1        0.1424
     20 H         139.5158  140.1391  171.1750 H       1  UNL1        0.1424
     21 O         139.9630  139.1603  165.9971 O.3     1  UNL1       -0.4712
     22 C         138.6167  138.5568  165.7264 C.3     1  UNL1        0.2525
     23 O         140.6433  144.7826  163.0864 O.3     1  UNL1       -0.3505
     24 C         139.8400  145.8151  162.3525 C.3     1  UNL1        0.1741
     25 C         142.9057  143.3470  158.6344 C.3     1  UNL1        0.0722
     26 C         138.8408  146.2910  155.3465 C.2     1  UNL1        0.2256
     27 O         137.5900  145.5938  154.9001 O.2     1  UNL1       -0.2749
     28 N         139.8570  145.5550  156.1685 N.am    1  UNL1       -0.2795
     29 C         141.1078  146.2521  156.6150 C.3     1  UNL1        0.0934
     30 C         142.1240  145.5161  157.4369 C.3     1  UNL1        0.0229
     31 C         141.8895  144.0830  157.8124 C.3     1  UNL1        0.0194
     32 C         140.6386  143.3858  157.3659 C.3     1  UNL1        0.0229
     33 C         139.6224  144.1218  156.5440 C.3     1  UNL1        0.0934
     34 C         139.0754  147.7241  154.9711 C.3     1  UNL1        0.0853
     35 C         138.6186  150.2325  155.4707 C.3     1  UNL1        0.0005
     36 C         138.7571  148.8171  155.9478 C.3     1  UNL1        0.0096
@<TRIPOS>BOND
     1    35    36    1
     2    36    34    1
     3    34    26    1
     4    26    27    2
     5    26    28   am
     6    28    29    1
     7    29    30    1
     8    30    31    1
     9    31    25    1
    10    25     1    1
    11     1     2    1
    12     2     3    1
    13     3     4    1
    14     4     7    1
    15     7     8   am
    16     8     9    2
    17     8    11    1
    18    11    12   ar
    19    12    13   ar
    20    13    14    1
    21    13    15   ar
    22    15    16    1
    23    15    17   ar
    24    17    18   ar
    25    18    21    1
    26    21    22    1
    27     4     5    1
    28     5    23    1
    29    23    24    1
    30     5     6    1
    31    31    32    1
    32    32    33    1
    33    33    28    1
    34     6     1    1
    35    18    11   ar
    36     7    10    1
    37    16    19    1
    38    16    20    1
@<TRIPOS>MOLECULE
*****
 36 38 0 0 0
SMALL
GASTEIGER

@<TRIPOS>ATOM
      1 N         142.6429  142.4934  160.0368 N.3     1  UNL1       -0.2705
      2 C         141.4305  141.6506  160.3012 C.3     1  UNL1        0.0739
      3 C         141.0894  141.2467  161.7049 C.3     1  UNL1        0.0394
      4 C         141.9606  141.6856  162.8443 C.3     1  UNL1        0.1017
      5 C         143.1729  142.5284  162.5801 C.3     1  UNL1        0.1490
      6 C         143.5141  142.9324  161.1763 C.3     1  UNL1        0.1037
      7 N         141.6194  141.2817  164.2481 N.am    1  UNL1       -0.2999
      8 C         140.7332  142.1554  165.0856 C.2     1  UNL1        0.2488
      9 O         140.1882  143.4330  164.5193 O.2     1  UNL1       -0.2700
     10 H         141.9772  140.4432  164.6198 H       1  UNL1        0.1498
     11 C         140.3921  141.7514  166.4893 C.ar    1  UNL1        0.0882
     12 C         140.6190  142.7090  167.6214 C.ar    1  UNL1        0.0202
     13 C         140.2779  142.3050  169.0251 C.ar    1  UNL1        0.0709
     14 CL        140.5048  143.2625  170.1572 Cl      1  UNL1       -0.0810
     15 C         139.7099  140.9436  169.2968 C.ar    1  UNL1        0.0553
     16 N         139.3688  140.5396  170.7005 N.pl3   1  UNL1       -0.3563
     17 C         139.4830  139.9860  168.1647 C.ar    1  UNL1        0.0520
     18 C         139.8241  140.3899  166.7609 C.ar    1  UNL1        0.1443
     19 H         139.5177  141.1681  171.4435 H       1  UNL1        0.1424
     20 H         138.9960  139.6460  170.8787 H       1  UNL1        0.1424
     21 O         139.5973  139.4324  165.6288 O.3     1  UNL1       -0.4712
     22 C         138.4708  138.4443  165.6966 C.3     1  UNL1        0.2525
     23 O         144.0442  142.9673  163.7195 O.3     1  UNL1       -0.3505
     24 C         145.2599  142.1683  164.0851 C.3     1  UNL1        0.1741
     25 C         142.9840  142.8973  158.6331 C.3     1  UNL1        0.0722
     26 C         139.8066  147.1835  155.8885 C.2     1  UNL1        0.2256
     27 O         138.7896  147.9725  156.6585 O.2     1  UNL1       -0.2749
     28 N         140.6010  146.1120  156.5746 N.am    1  UNL1       -0.2795
     29 C         141.6180  145.3229  155.8046 C.3     1  UNL1        0.0934
     30 C         142.4123  144.2514  156.4908 C.3     1  UNL1        0.0229
     31 C         142.1896  143.9689  157.9470 C.3     1  UNL1        0.0194
     32 C         141.1726  144.7579  158.7170 C.3     1  UNL1        0.0229
     33 C         140.3783  145.8294  158.0308 C.3     1  UNL1        0.0934
     34 C         140.0293  147.4660  154.4323 C.3     1  UNL1        0.0853
     35 C         140.3041  149.2294  152.5441 C.3     1  UNL1        0.0005
     36 C         139.7556  148.8349  153.8834 C.3     1  UNL1        0.0096
@<TRIPOS>BOND
     1    35    36    1
     2    36    34    1
     3    34    26    1
     4    26    27    2
     5    26    28   am
     6    28    29    1
     7    29    30    1
     8    30    31    1
     9    31    25    1
    10    25     1    1
    11     1     2    1
    12     2     3    1
    13     3     4    1
    14     4     7    1
    15     7     8   am
    16     8     9    2
    17     8    11    1
    18    11    12   ar
    19    12    13   ar
    20    13    14    1
    21    13    15   ar
    22    15    16    1
    23    15    17   ar
    24    17    18   ar
    25    18    21    1
    26    21    22    1
    27     4     5    1
    28     5    23    1
    29    23    24    1
    30     5     6    1
    31    31    32    1
    32    32    33    1
    33    33    28    1
    34     6     1    1
    35    18    11   ar
    36     7    10    1
    37    16    19    1
    38    16    20    1
@<TRIPOS>MOLECULE
*****
 36 38 0 0 0
SMALL
GASTEIGER

@<TRIPOS>ATOM
      1 N         140.6947  139.9118  159.9211 N.3     1  UNL1       -0.2705
      2 C         139.3890  139.6684  160.6183 C.3     1  UNL1        0.0739
      3 C         139.3211  139.7020  162.1164 C.3     1  UNL1        0.0394
      4 C         140.5587  139.9791  162.9173 C.3     1  UNL1        0.1017
      5 C         141.8643  140.2225  162.2202 C.3     1  UNL1        0.1490
      6 C         141.9323  140.1889  160.7220 C.3     1  UNL1        0.1037
      7 N         140.4907  140.0127  164.4154 N.am    1  UNL1       -0.2999
      8 C         140.1565  141.2926  165.1225 C.2     1  UNL1        0.2488
      9 O         139.8904  142.5390  164.3315 O.2     1  UNL1       -0.2700
     10 H         140.6653  139.1946  164.9346 H       1  UNL1        0.1498
     11 C         140.0885  141.3262  166.6206 C.ar    1  UNL1        0.0882
     12 C         140.5792  142.5314  167.3668 C.ar    1  UNL1        0.0202
     13 C         140.5112  142.5649  168.8649 C.ar    1  UNL1        0.0709
     14 CL        141.0019  143.7700  169.6111 Cl      1  UNL1       -0.0810
     15 C         139.9525  141.3934  169.6167 C.ar    1  UNL1        0.0553
     16 N         139.8845  141.4269  171.1148 N.pl3   1  UNL1       -0.3563
     17 C         139.4618  140.1882  168.8705 C.ar    1  UNL1        0.0520
     18 C         139.5298  140.1546  167.3724 C.ar    1  UNL1        0.1443
     19 H         140.2066  142.2179  171.6046 H       1  UNL1        0.1424
     20 H         139.5178  140.6580  171.6082 H       1  UNL1        0.1424
     21 O         139.0391  138.9495  166.6262 O.3     1  UNL1       -0.4712
     22 C         137.6632  138.4133  166.8894 C.3     1  UNL1        0.2525
     23 O         143.1020  140.4996  163.0211 O.3     1  UNL1       -0.3505
     24 C         144.3545  140.9550  162.3327 C.3     1  UNL1        0.1741
     25 C         140.7627  139.8782  158.4231 C.3     1  UNL1        0.0722
     26 C         142.2203  134.7887  155.5995 C.2     1  UNL1        0.2256
     27 O         141.2019  134.0809  154.7560 O.2     1  UNL1       -0.2749
     28 N         141.8559  136.0611  156.3054 N.am    1  UNL1       -0.2795
     29 C         142.8744  136.7690  157.1490 C.3     1  UNL1        0.0934
     30 C         142.5099  138.0414  157.8548 C.3     1  UNL1        0.0229
     31 C         141.1271  138.6059  157.7172 C.3     1  UNL1        0.0194
     32 C         140.1086  137.8980  156.8736 C.3     1  UNL1        0.0229
     33 C         140.4731  136.6256  156.1677 C.3     1  UNL1        0.0934
     34 C         143.6032  134.2243  155.7372 C.3     1  UNL1        0.0853
     35 C         144.7057  131.8907  156.0357 C.3     1  UNL1        0.0005
     36 C         143.8314  132.9911  156.5601 C.3     1  UNL1        0.0096
@<TRIPOS>BOND
     1    35    36    1
     2    36    34    1
     3    34    26    1
     4    26    27    2
     5    26    28   am
     6    28    29    1
     7    29    30    1
     8    30    31    1
     9    31    25    1
    10    25     1    1
    11     1     2    1
    12     2     3    1
    13     3     4    1
    14     4     7    1
    15     7     8   am
    16     8     9    2
    17     8    11    1
    18    11    12   ar
    19    12    13   ar
    20    13    14    1
    21    13    15   ar
    22    15    16    1
    23    15    17   ar
    24    17    18   ar
    25    18    21    1
    26    21    22    1
    27     4     5    1
    28     5    23    1
    29    23    24    1
    30     5     6    1
    31    31    32    1
    32    32    33    1
    33    33    28    1
    34     6     1    1
    35    18    11   ar
    36     7    10    1
    37    16    19    1
    38    16    20    1
