@<TRIPOS>MOLECULE
*****
 27 29 0 0 0
SMALL
GASTEIGER

@<TRIPOS>ATOM
      1 C         140.3140  139.6485  166.9856 C.ar    1  UNL1       -0.0078
      2 C         141.2442  139.2200  165.8897 C.ar    1  UNL1        0.0001
      3 C         140.6972  138.5721  164.6523 C.ar    1  UNL1        0.0366
      4 C         139.2201  138.3527  164.5109 C.ar    1  UNL1        0.1390
      5 C         138.2899  138.7812  165.6070 C.ar    1  UNL1        0.0366
      6 C         138.8369  139.4291  166.8443 C.ar    1  UNL1        0.0001
      7 C         140.7528  142.1744  170.0150 C.3     1  UNL1        0.1314
      8 C         141.9548  141.5922  170.6977 C.3     1  UNL1        0.0251
      9 C         142.6099  140.3621  170.1431 C.3     1  UNL1        0.0036
     10 C         142.0630  139.7142  168.9058 C.3     1  UNL1        0.0203
     11 C         140.8610  140.2964  168.2231 C.3     1  UNL1        0.0771
     12 N         140.2059  141.5265  168.7777 N.3     1  UNL1       -0.2890
     13 H         139.2370  141.2790  168.9786 H       1  UNL1        0.1239
     14 N         138.8716  143.2805  171.4248 N.am    1  UNL1       -0.3277
     15 C         140.0976  143.4046  170.5697 C.2     1  UNL1        0.2336
     16 O         140.6686  144.7587  170.2692 O.2     1  UNL1       -0.2739
     17 H         138.4416  144.0879  171.7889 H       1  UNL1        0.1450
     18 H         138.4968  142.3918  171.6221 H       1  UNL1        0.1450
     19 O         138.6731  137.7048  163.2736 O.3     1  UNL1       -0.4706
     20 C         138.0406  138.5451  162.2041 C.3     1  UNL1        0.2321
     21 C         138.4738  139.9686  162.0144 C.ar    1  UNL1        0.0234
     22 C         139.7371  140.2748  161.2658 C.ar    1  UNL1       -0.0005
     23 C         140.1702  141.6983  161.0762 C.ar    1  UNL1        0.0021
     24 C         139.3400  142.8156  161.6351 C.ar    1  UNL1        0.0296
     25 C         138.0768  142.5095  162.3837 C.ar    1  UNL1        0.1399
     26 F         137.2466  143.6268  162.9426 F       1  UNL1       -0.2042
     27 C         137.6437  141.0860  162.5733 C.ar    1  UNL1        0.0289
@<TRIPOS>BOND
     1    14    15   am
     2    15    16    2
     3     7    15    1
     4     7     8    1
     5     8     9    1
     6     9    10    1
     7    10    11    1
     8    11     1    1
     9     1     2   ar
    10     2     3   ar
    11     3     4   ar
    12     4    19    1
    13    19    20    1
    14    20    21    1
    15    21    22   ar
    16    22    23   ar
    17    23    24   ar
    18    24    25   ar
    19    25    26    1
    20    25    27   ar
    21     4     5   ar
    22     5     6   ar
    23    11    12    1
    24    12     7    1
    25     6     1   ar
    26    27    21   ar
    27    14    17    1
    28    14    18    1
    29    12    13    1
@<TRIPOS>MOLECULE
*****
 27 29 0 0 0
SMALL
GASTEIGER

@<TRIPOS>ATOM
      1 C         141.1771  139.8650  166.5749 C.ar    1  UNL1       -0.0078
      2 C         142.4547  139.0837  166.6603 C.ar    1  UNL1        0.0001
      3 C         143.0444  138.4729  165.4236 C.ar    1  UNL1        0.0366
      4 C         142.3564  138.6435  164.1016 C.ar    1  UNL1        0.1390
      5 C         141.0788  139.4249  164.0163 C.ar    1  UNL1        0.0366
      6 C         140.4891  140.0356  165.2530 C.ar    1  UNL1        0.0001
      7 C         140.5439  142.3782  169.5804 C.3     1  UNL1        0.1314
      8 C         139.4081  141.6973  170.2848 C.3     1  UNL1        0.0251
      9 C         138.8620  140.4055  169.7527 C.3     1  UNL1        0.0036
     10 C         139.4517  139.7948  168.5161 C.3     1  UNL1        0.0203
     11 C         140.5874  140.4757  167.8116 C.3     1  UNL1        0.0771
     12 N         141.1335  141.7675  168.3438 N.3     1  UNL1       -0.2890
     13 H         141.0356  142.4576  167.5991 H       1  UNL1        0.1239
     14 N         140.1826  144.8509  170.2911 N.am    1  UNL1       -0.3277
     15 C         141.0900  143.6700  170.1126 C.2     1  UNL1        0.2336
     16 O         142.5435  143.7807  170.4662 O.2     1  UNL1       -0.2739
     17 H         140.5411  145.6987  170.6404 H       1  UNL1        0.1450
     18 H         139.2287  144.7783  170.0590 H       1  UNL1        0.1450
     19 O         142.9461  138.0328  162.8650 O.3     1  UNL1       -0.4706
     20 C         144.0195  138.7582  162.1089 C.3     1  UNL1        0.2321
     21 C         144.2469  140.2215  162.3477 C.ar    1  UNL1        0.0234
     22 C         145.1843  140.6681  163.4301 C.ar    1  UNL1       -0.0005
     23 C         145.4117  142.1314  163.6688 C.ar    1  UNL1        0.0021
     24 C         144.7016  143.1481  162.8250 C.ar    1  UNL1        0.0296
     25 C         143.7641  142.7016  161.7426 C.ar    1  UNL1        0.1399
     26 F         143.0541  143.7184  160.8988 F       1  UNL1       -0.2042
     27 C         143.5368  141.2383  161.5039 C.ar    1  UNL1        0.0289
@<TRIPOS>BOND
     1    14    15   am
     2    15    16    2
     3     7    15    1
     4     7     8    1
     5     8     9    1
     6     9    10    1
     7    10    11    1
     8    11     1    1
     9     1     2   ar
    10     2     3   ar
    11     3     4   ar
    12     4    19    1
    13    19    20    1
    14    20    21    1
    15    21    22   ar
    16    22    23   ar
    17    23    24   ar
    18    24    25   ar
    19    25    26    1
    20    25    27   ar
    21     4     5   ar
    22     5     6   ar
    23    11    12    1
    24    12     7    1
    25     6     1   ar
    26    27    21   ar
    27    14    17    1
    28    14    18    1
    29    12    13    1
@<TRIPOS>MOLECULE
*****
 27 29 0 0 0
SMALL
GASTEIGER

@<TRIPOS>ATOM
      1 C         140.7524  139.8715  166.1170 C.ar    1  UNL1       -0.0078
      2 C         139.2806  139.5989  166.2140 C.ar    1  UNL1        0.0001
      3 C         138.5899  138.8174  165.1358 C.ar    1  UNL1        0.0366
      4 C         139.3711  138.3085  163.9607 C.ar    1  UNL1        0.1390
      5 C         140.8430  138.5812  163.8638 C.ar    1  UNL1        0.0366
      6 C         141.5336  139.3627  164.9419 C.ar    1  UNL1        0.0001
      7 C         141.6579  141.3366  169.6924 C.3     1  UNL1        0.1314
      8 C         142.8243  142.2159  169.3513 C.3     1  UNL1        0.0251
      9 C         143.3000  142.3138  167.9322 C.3     1  UNL1        0.0036
     10 C         142.6094  141.5323  166.8540 C.3     1  UNL1        0.0203
     11 C         141.4431  140.6530  167.1951 C.3     1  UNL1        0.0771
     12 N         140.9673  140.5551  168.6143 N.3     1  UNL1       -0.2890
     13 H         141.0285  139.5718  168.8782 H       1  UNL1        0.1239
     14 N         140.3147  140.0903  171.5343 N.am    1  UNL1       -0.3277
     15 C         141.1822  141.2387  171.1116 C.2     1  UNL1        0.2336
     16 O         141.5739  142.2892  172.1081 O.2     1  UNL1       -0.2739
     17 H         140.0025  140.0261  172.4658 H       1  UNL1        0.1450
     18 H         140.0576  139.4008  170.8803 H       1  UNL1        0.1450
     19 O         138.6805  137.5271  162.8826 O.3     1  UNL1       -0.4706
     20 C         137.8244  138.2348  161.8747 C.3     1  UNL1        0.2321
     21 C         138.2046  139.6053  161.3978 C.ar    1  UNL1        0.0234
     22 C         139.1353  139.7623  160.2320 C.ar    1  UNL1       -0.0005
     23 C         139.5155  141.1327  159.7551 C.ar    1  UNL1        0.0021
     24 C         138.9650  142.3461  160.4441 C.ar    1  UNL1        0.0296
     25 C         138.0344  142.1890  161.6100 C.ar    1  UNL1        0.1399
     26 F         137.4839  143.4024  162.2990 F       1  UNL1       -0.2042
     27 C         137.6542  140.8186  162.0868 C.ar    1  UNL1        0.0289
@<TRIPOS>BOND
     1    14    15   am
     2    15    16    2
     3     7    15    1
     4     7     8    1
     5     8     9    1
     6     9    10    1
     7    10    11    1
     8    11     1    1
     9     1     2   ar
    10     2     3   ar
    11     3     4   ar
    12     4    19    1
    13    19    20    1
    14    20    21    1
    15    21    22   ar
    16    22    23   ar
    17    23    24   ar
    18    24    25   ar
    19    25    26    1
    20    25    27   ar
    21     4     5   ar
    22     5     6   ar
    23    11    12    1
    24    12     7    1
    25     6     1   ar
    26    27    21   ar
    27    14    17    1
    28    14    18    1
    29    12    13    1
@<TRIPOS>MOLECULE
*****
 27 29 0 0 0
SMALL
GASTEIGER

@<TRIPOS>ATOM
      1 C         142.6898  140.5834  166.3306 C.ar    1  UNL1       -0.0078
      2 C         142.4219  141.4228  165.1167 C.ar    1  UNL1        0.0001
      3 C         142.7613  140.8989  163.7527 C.ar    1  UNL1        0.0366
      4 C         143.3686  139.5356  163.6027 C.ar    1  UNL1        0.1390
      5 C         143.6366  138.6962  164.8167 C.ar    1  UNL1        0.0366
      6 C         143.2971  139.2201  166.1805 C.ar    1  UNL1        0.0001
      7 C         140.8494  141.0574  169.8146 C.3     1  UNL1        0.1314
      8 C         141.6715  142.1549  170.4224 C.3     1  UNL1        0.0251
      9 C         142.8331  142.7286  169.6663 C.3     1  UNL1        0.0036
     10 C         143.1725  142.2048  168.3024 C.3     1  UNL1        0.0203
     11 C         142.3504  141.1073  167.6946 C.3     1  UNL1        0.0771
     12 N         141.1888  140.5336  168.4506 N.3     1  UNL1       -0.2890
     13 H         141.3698  139.5352  168.5553 H       1  UNL1        0.1239
     14 N         139.8778  139.2673  171.4275 N.am    1  UNL1       -0.3277
     15 C         139.6878  140.4837  170.5706 C.2     1  UNL1        0.2336
     16 O         138.3363  141.1265  170.4699 O.2     1  UNL1       -0.2739
     17 H         139.1154  138.8908  171.9237 H       1  UNL1        0.1450
     18 H         140.7649  138.8455  171.4936 H       1  UNL1        0.1450
     19 O         143.7081  139.0117  162.2388 O.3     1  UNL1       -0.4706
     20 C         142.8526  137.9535  161.6076 C.3     1  UNL1        0.2321
     21 C         141.3606  138.0101  161.7524 C.ar    1  UNL1        0.0234
     22 C         140.5151  138.5052  160.6167 C.ar    1  UNL1       -0.0005
     23 C         139.0232  138.5618  160.7615 C.ar    1  UNL1        0.0021
     24 C         138.3769  138.1233  162.0421 C.ar    1  UNL1        0.0296
     25 C         139.2224  137.6281  163.1778 C.ar    1  UNL1        0.1399
     26 F         138.5760  137.1896  164.4584 F       1  UNL1       -0.2042
     27 C         140.7142  137.5716  163.0330 C.ar    1  UNL1        0.0289
@<TRIPOS>BOND
     1    14    15   am
     2    15    16    2
     3     7    15    1
     4     7     8    1
     5     8     9    1
     6     9    10    1
     7    10    11    1
     8    11     1    1
     9     1     2   ar
    10     2     3   ar
    11     3     4   ar
    12     4    19    1
    13    19    20    1
    14    20    21    1
    15    21    22   ar
    16    22    23   ar
    17    23    24   ar
    18    24    25   ar
    19    25    26    1
    20    25    27   ar
    21     4     5   ar
    22     5     6   ar
    23    11    12    1
    24    12     7    1
    25     6     1   ar
    26    27    21   ar
    27    14    17    1
    28    14    18    1
    29    12    13    1
@<TRIPOS>MOLECULE
*****
 27 29 0 0 0
SMALL
GASTEIGER

@<TRIPOS>ATOM
      1 C         140.2947  140.2607  166.0772 C.ar    1  UNL1       -0.0078
      2 C         141.1559  140.2346  164.8494 C.ar    1  UNL1        0.0001
      3 C         140.5277  140.0828  163.4957 C.ar    1  UNL1        0.0366
      4 C         139.0383  139.9573  163.3699 C.ar    1  UNL1        0.1390
      5 C         138.1771  139.9834  164.5978 C.ar    1  UNL1        0.0366
      6 C         138.8053  140.1352  165.9514 C.ar    1  UNL1        0.0001
      7 C         141.0001  141.5622  169.7594 C.3     1  UNL1        0.1314
      8 C         142.1793  140.7160  170.1381 C.3     1  UNL1        0.0251
      9 C         142.7303  139.7180  169.1632 C.3     1  UNL1        0.0036
     10 C         142.1021  139.5662  167.8096 C.3     1  UNL1        0.0203
     11 C         140.9230  140.4125  167.4309 C.3     1  UNL1        0.0771
     12 N         140.3720  141.4105  168.4058 N.3     1  UNL1       -0.2890
     13 H         139.3949  141.1622  168.5608 H       1  UNL1        0.1239
     14 N         140.0194  143.9159  170.2575 N.am    1  UNL1       -0.3277
     15 C         140.4492  142.5602  170.7343 C.2     1  UNL1        0.2336
     16 O         140.3280  142.2025  172.1859 O.2     1  UNL1       -0.2739
     17 H         139.6577  144.5709  170.8974 H       1  UNL1        0.1450
     18 H         140.0989  144.1507  169.3048 H       1  UNL1        0.1450
     19 O         138.4100  139.8055  162.0163 O.3     1  UNL1       -0.4706
     20 C         137.9964  141.0211  161.2410 C.3     1  UNL1        0.2321
     21 C         138.4188  142.3846  161.7023 C.ar    1  UNL1        0.0234
     22 C         137.6148  143.1068  162.7425 C.ar    1  UNL1       -0.0005
     23 C         138.0372  144.4702  163.2037 C.ar    1  UNL1        0.0021
     24 C         139.2635  145.1113  162.6248 C.ar    1  UNL1        0.0296
     25 C         140.0674  144.3891  161.5846 C.ar    1  UNL1        0.1399
     26 F         141.2937  145.0302  161.0057 F       1  UNL1       -0.2042
     27 C         139.6450  143.0257  161.1233 C.ar    1  UNL1        0.0289
@<TRIPOS>BOND
     1    14    15   am
     2    15    16    2
     3     7    15    1
     4     7     8    1
     5     8     9    1
     6     9    10    1
     7    10    11    1
     8    11     1    1
     9     1     2   ar
    10     2     3   ar
    11     3     4   ar
    12     4    19    1
    13    19    20    1
    14    20    21    1
    15    21    22   ar
    16    22    23   ar
    17    23    24   ar
    18    24    25   ar
    19    25    26    1
    20    25    27   ar
    21     4     5   ar
    22     5     6   ar
    23    11    12    1
    24    12     7    1
    25     6     1   ar
    26    27    21   ar
    27    14    17    1
    28    14    18    1
    29    12    13    1
@<TRIPOS>MOLECULE
*****
 27 29 0 0 0
SMALL
GASTEIGER

@<TRIPOS>ATOM
      1 C         140.4254  143.1089  165.9067 C.ar    1  UNL1       -0.0078
      2 C         139.2337  143.9306  165.5136 C.ar    1  UNL1        0.0001
      3 C         139.3051  144.8299  164.3150 C.ar    1  UNL1        0.0366
      4 C         140.5683  144.9073  163.5098 C.ar    1  UNL1        0.1390
      5 C         141.7600  144.0856  163.9030 C.ar    1  UNL1        0.0366
      6 C         141.6886  143.1864  165.1014 C.ar    1  UNL1        0.0001
      7 C         140.8020  141.7843  169.6288 C.3     1  UNL1        0.1314
      8 C         140.2113  140.4113  169.5021 C.3     1  UNL1        0.0251
      9 C         139.6920  139.9376  168.1771 C.3     1  UNL1        0.0036
     10 C         139.7634  140.8367  166.9786 C.3     1  UNL1        0.0203
     11 C         140.3541  142.2097  167.1052 C.3     1  UNL1        0.0771
     12 N         140.8734  142.6834  168.4303 N.3     1  UNL1       -0.2890
     13 H         140.3534  143.5289  168.6651 H       1  UNL1        0.1239
     14 N         142.6930  142.8572  171.0510 N.am    1  UNL1       -0.3277
     15 C         141.3214  142.2580  170.9538 C.2     1  UNL1        0.2336
     16 O         140.4691  142.1326  172.1817 O.2     1  UNL1       -0.2739
     17 H         143.0339  143.1682  171.9207 H       1  UNL1        0.1450
     18 H         143.2525  142.9395  170.2451 H       1  UNL1        0.1450
     19 O         140.6397  145.8065  162.3113 O.3     1  UNL1       -0.4706
     20 C         140.2124  145.2987  160.9662 C.3     1  UNL1        0.2321
     21 C         140.1543  143.8226  160.7056 C.ar    1  UNL1        0.0234
     22 C         141.3615  143.1062  160.1770 C.ar    1  UNL1       -0.0005
     23 C         141.3034  141.6302  159.9164 C.ar    1  UNL1        0.0021
     24 C         140.0381  140.8705  160.1844 C.ar    1  UNL1        0.0296
     25 C         138.8309  141.5869  160.7130 C.ar    1  UNL1        0.1399
     26 F         137.5655  140.8272  160.9810 F       1  UNL1       -0.2042
     27 C         138.8890  143.0629  160.9736 C.ar    1  UNL1        0.0289
@<TRIPOS>BOND
     1    14    15   am
     2    15    16    2
     3     7    15    1
     4     7     8    1
     5     8     9    1
     6     9    10    1
     7    10    11    1
     8    11     1    1
     9     1     2   ar
    10     2     3   ar
    11     3     4   ar
    12     4    19    1
    13    19    20    1
    14    20    21    1
    15    21    22   ar
    16    22    23   ar
    17    23    24   ar
    18    24    25   ar
    19    25    26    1
    20    25    27   ar
    21     4     5   ar
    22     5     6   ar
    23    11    12    1
    24    12     7    1
    25     6     1   ar
    26    27    21   ar
    27    14    17    1
    28    14    18    1
    29    12    13    1
@<TRIPOS>MOLECULE
*****
 27 29 0 0 0
SMALL
GASTEIGER

@<TRIPOS>ATOM
      1 C         140.3292  142.4707  166.0363 C.ar    1  UNL1       -0.0078
      2 C         140.6787  143.6196  165.1375 C.ar    1  UNL1        0.0001
      3 C         139.8714  143.8758  163.8994 C.ar    1  UNL1        0.0366
      4 C         138.7148  142.9829  163.5601 C.ar    1  UNL1        0.1390
      5 C         138.3654  141.8340  164.4590 C.ar    1  UNL1        0.0366
      6 C         139.1726  141.5779  165.6970 C.ar    1  UNL1        0.0001
      7 C         141.2608  141.5309  169.7778 C.3     1  UNL1        0.1314
      8 C         142.7507  141.7024  169.7506 C.3     1  UNL1        0.0251
      9 C         143.4335  142.1300  168.4853 C.3     1  UNL1        0.0036
     10 C         142.6263  142.3861  167.2472 C.3     1  UNL1        0.0203
     11 C         141.1364  142.2146  167.2744 C.3     1  UNL1        0.0771
     12 N         140.4537  141.7870  168.5397 N.3     1  UNL1       -0.2890
     13 H         139.9565  140.9219  168.3282 H       1  UNL1        0.1239
     14 N         140.0033  139.7224  171.1554 N.am    1  UNL1       -0.3277
     15 C         140.5781  141.1033  171.0431 C.2     1  UNL1        0.2336
     16 O         140.4701  142.0566  172.1961 O.2     1  UNL1       -0.2739
     17 H         139.5551  139.4417  171.9859 H       1  UNL1        0.1450
     18 H         140.0741  139.0967  170.3986 H       1  UNL1        0.1450
     19 O         137.9076  143.2390  162.3221 O.3     1  UNL1       -0.4706
     20 C         138.2242  142.5020  161.0546 C.3     1  UNL1        0.2321
     21 C         138.6916  141.0777  161.1120 C.ar    1  UNL1        0.0234
     22 C         140.1387  140.7536  160.8866 C.ar    1  UNL1       -0.0005
     23 C         140.6060  139.3295  160.9440 C.ar    1  UNL1        0.0021
     24 C         139.6262  138.2294  161.2266 C.ar    1  UNL1        0.0296
     25 C         138.1791  138.5535  161.4520 C.ar    1  UNL1        0.1399
     26 F         137.1994  137.4534  161.7346 F       1  UNL1       -0.2042
     27 C         137.7118  139.9777  161.3946 C.ar    1  UNL1        0.0289
@<TRIPOS>BOND
     1    14    15   am
     2    15    16    2
     3     7    15    1
     4     7     8    1
     5     8     9    1
     6     9    10    1
     7    10    11    1
     8    11     1    1
     9     1     2   ar
    10     2     3   ar
    11     3     4   ar
    12     4    19    1
    13    19    20    1
    14    20    21    1
    15    21    22   ar
    16    22    23   ar
    17    23    24   ar
    18    24    25   ar
    19    25    26    1
    20    25    27   ar
    21     4     5   ar
    22     5     6   ar
    23    11    12    1
    24    12     7    1
    25     6     1   ar
    26    27    21   ar
    27    14    17    1
    28    14    18    1
    29    12    13    1
@<TRIPOS>MOLECULE
*****
 27 29 0 0 0
SMALL
GASTEIGER

@<TRIPOS>ATOM
      1 C         139.8063  140.0560  166.2314 C.ar    1  UNL1       -0.0078
      2 C         140.9334  140.3209  165.2778 C.ar    1  UNL1        0.0001
      3 C         140.7023  140.2271  163.7987 C.ar    1  UNL1        0.0366
      4 C         139.3439  139.8683  163.2732 C.ar    1  UNL1        0.1390
      5 C         138.2167  139.6034  164.2268 C.ar    1  UNL1        0.0366
      6 C         138.4479  139.6972  165.7059 C.ar    1  UNL1        0.0001
      7 C         141.6569  140.4467  169.7203 C.3     1  UNL1        0.1314
      8 C         140.4999  140.3374  170.6687 C.3     1  UNL1        0.0251
      9 C         139.1117  140.1344  170.1380 C.3     1  UNL1        0.0036
     10 C         138.8805  140.0405  168.6589 C.3     1  UNL1        0.0203
     11 C         140.0375  140.1498  167.7105 C.3     1  UNL1        0.0771
     12 N         141.4257  140.3528  168.2413 N.3     1  UNL1       -0.2890
     13 H         141.7728  141.2209  167.8333 H       1  UNL1        0.1239
     14 N         143.6579  139.6257  171.1597 N.am    1  UNL1       -0.3277
     15 C         143.0451  140.6497  170.2511 C.2     1  UNL1        0.2336
     16 O         143.8205  141.8769  169.8731 O.2     1  UNL1       -0.2739
     17 H         144.5690  139.7589  171.5080 H       1  UNL1        0.1450
     18 H         143.1490  138.8202  171.4078 H       1  UNL1        0.1450
     19 O         139.1127  139.7745  161.7941 O.3     1  UNL1       -0.4706
     20 C         138.5233  140.9371  161.0519 C.3     1  UNL1        0.2321
     21 C         138.6780  142.3280  161.5920 C.ar    1  UNL1        0.0234
     22 C         137.6872  142.8620  162.5835 C.ar    1  UNL1       -0.0005
     23 C         137.8419  144.2528  163.1235 C.ar    1  UNL1        0.0021
     24 C         138.9875  145.1096  162.6721 C.ar    1  UNL1        0.0296
     25 C         139.9783  144.5755  161.6807 C.ar    1  UNL1        0.1399
     26 F         141.1238  145.4322  161.2293 F       1  UNL1       -0.2042
     27 C         139.8235  143.1847  161.1406 C.ar    1  UNL1        0.0289
@<TRIPOS>BOND
     1    14    15   am
     2    15    16    2
     3     7    15    1
     4     7     8    1
     5     8     9    1
     6     9    10    1
     7    10    11    1
     8    11     1    1
     9     1     2   ar
    10     2     3   ar
    11     3     4   ar
    12     4    19    1
    13    19    20    1
    14    20    21    1
    15    21    22   ar
    16    22    23   ar
    17    23    24   ar
    18    24    25   ar
    19    25    26    1
    20    25    27   ar
    21     4     5   ar
    22     5     6   ar
    23    11    12    1
    24    12     7    1
    25     6     1   ar
    26    27    21   ar
    27    14    17    1
    28    14    18    1
    29    12    13    1
@<TRIPOS>MOLECULE
*****
 27 29 0 0 0
SMALL
GASTEIGER

@<TRIPOS>ATOM
      1 C         141.6394  142.2296  165.8416 C.ar    1  UNL1       -0.0078
      2 C         143.1345  142.1209  165.7890 C.ar    1  UNL1        0.0001
      3 C         143.8816  142.6255  164.5901 C.ar    1  UNL1        0.0366
      4 C         143.1334  143.2387  163.4437 C.ar    1  UNL1        0.1390
      5 C         141.6382  143.3474  163.4963 C.ar    1  UNL1        0.0366
      6 C         140.8913  142.8429  164.6952 C.ar    1  UNL1        0.0001
      7 C         140.1038  142.0384  169.4961 C.3     1  UNL1        0.1314
      8 C         139.3983  140.7159  169.4383 C.3     1  UNL1        0.0251
      9 C         139.4398  139.8980  168.1816 C.3     1  UNL1        0.0036
     10 C         140.1868  140.4025  166.9827 C.3     1  UNL1        0.0203
     11 C         140.8923  141.7250  167.0405 C.3     1  UNL1        0.0771
     12 N         140.8508  142.5429  168.2972 N.3     1  UNL1       -0.2890
     13 H         140.4377  143.4420  168.0498 H       1  UNL1        0.1239
     14 N         139.7347  144.3185  170.6855 N.am    1  UNL1       -0.3277
     15 C         140.0623  142.8563  170.7528 C.2     1  UNL1        0.2336
     16 O         140.3483  142.2120  172.0768 O.2     1  UNL1       -0.2739
     17 H         139.7075  144.8553  171.5103 H       1  UNL1        0.1450
     18 H         139.5470  144.7414  169.8165 H       1  UNL1        0.1450
     19 O         143.8804  143.7433  162.2449 O.3     1  UNL1       -0.4706
     20 C         144.7776  142.8189  161.4765 C.3     1  UNL1        0.2321
     21 C         144.2327  141.5382  160.9168 C.ar    1  UNL1        0.0234
     22 C         143.5092  141.5418  159.6029 C.ar    1  UNL1       -0.0005
     23 C         142.9644  140.2612  159.0433 C.ar    1  UNL1        0.0021
     24 C         143.1431  138.9770  159.7977 C.ar    1  UNL1        0.0296
     25 C         143.8666  138.9735  161.1116 C.ar    1  UNL1        0.1399
     26 F         144.0453  137.6894  161.8660 F       1  UNL1       -0.2042
     27 C         144.4114  140.2541  161.6712 C.ar    1  UNL1        0.0289
@<TRIPOS>BOND
     1    14    15   am
     2    15    16    2
     3     7    15    1
     4     7     8    1
     5     8     9    1
     6     9    10    1
     7    10    11    1
     8    11     1    1
     9     1     2   ar
    10     2     3   ar
    11     3     4   ar
    12     4    19    1
    13    19    20    1
    14    20    21    1
    15    21    22   ar
    16    22    23   ar
    17    23    24   ar
    18    24    25   ar
    19    25    26    1
    20    25    27   ar
    21     4     5   ar
    22     5     6   ar
    23    11    12    1
    24    12     7    1
    25     6     1   ar
    26    27    21   ar
    27    14    17    1
    28    14    18    1
    29    12    13    1
