@<TRIPOS>MOLECULE
*****
 32 35 0 0 0
SMALL
GASTEIGER

@<TRIPOS>ATOM
      1 N         139.2638  142.6864  160.6396 N.3     1  UNL1       -0.2616
      2 C         139.0522  142.7215  159.1551 C.3     1  UNL1        0.1051
      3 C         138.5371  141.5065  158.4420 C.3     1  UNL1        0.1595
      4 O         138.2336  140.2564  159.2135 O.3     1  UNL1       -0.3519
      5 C         138.4452  140.2213  160.6981 C.3     1  UNL1        0.1471
      6 C         138.9603  141.4363  161.4112 C.3     1  UNL1        0.1040
      7 C         139.7789  143.9014  161.3527 C.3     1  UNL1        0.1173
      8 C         139.7156  143.9757  162.8496 C.ar    1  UNL1       -0.0025
      9 C         140.8558  143.4578  163.6752 C.ar    1  UNL1       -0.0026
     10 C         140.7924  143.5320  165.1719 C.ar    1  UNL1       -0.0003
     11 C         139.5888  144.1242  165.8432 C.ar    1  UNL1       -0.0000
     12 C         138.4485  144.6421  165.0176 C.ar    1  UNL1       -0.0003
     13 C         138.5119  144.5678  163.5208 C.ar    1  UNL1       -0.0026
     14 O         141.7853  144.9906  160.1126 O.co2   1  UNL1       -0.5475
     15 C         140.3574  145.0420  160.5690 C.2     1  UNL1        0.0691
     16 O         139.5079  146.2342  160.2417 O.co2   1  UNL1       -0.5475
     17 C         138.1417  138.9713  161.4696 C.3     1  UNL1        0.1034
     18 N         138.3163  138.9482  162.9592 N.3     1  UNL1       -0.2704
     19 C         138.8927  137.7357  163.6281 C.3     1  UNL1        0.0759
     20 C         139.0673  137.7127  165.1177 C.3     1  UNL1        0.0609
     21 C         138.6655  138.9022  165.9385 C.3     1  UNL1        0.1687
     22 C         138.0892  140.1147  165.2695 C.3     1  UNL1        0.0609
     23 C         137.9145  140.1377  163.7799 C.3     1  UNL1        0.0759
     24 O         138.8402  138.8791  167.4281 O.3     1  UNL1       -0.4790
     25 C         139.6270  139.9602  168.1078 C.ar    1  UNL1        0.1393
     26 C         139.1326  140.5515  169.3947 C.ar    1  UNL1        0.0378
     27 C         139.9194  141.6326  170.0744 C.ar    1  UNL1        0.0154
     28 C         141.2006  142.1226  169.4673 C.ar    1  UNL1        0.0684
     29 CL        141.9874  143.2037  170.1471 Cl      1  UNL1       -0.0814
     30 C         141.6949  141.5313  168.1804 C.ar    1  UNL1        0.0712
     31 CL        142.9761  142.0213  167.5733 Cl      1  UNL1       -0.0813
     32 C         140.9081  140.4502  167.5007 C.ar    1  UNL1        0.0491
@<TRIPOS>UNITY_ATOM_ATTR
14 1
charge -1
@<TRIPOS>BOND
     1    14    15   ar
     2    15    16   ar
     3    15     7    1
     4     7     8    1
     5     8     9   ar
     6     9    10   ar
     7    10    11   ar
     8    11    12   ar
     9    12    13   ar
    10     7     1    1
    11     1     2    1
    12     2     3    1
    13     3     4    1
    14     4     5    1
    15     5    17    1
    16    17    18    1
    17    18    19    1
    18    19    20    1
    19    20    21    1
    20    21    24    1
    21    24    25    1
    22    25    26   ar
    23    26    27   ar
    24    27    28   ar
    25    28    29    1
    26    28    30   ar
    27    30    31    1
    28    30    32   ar
    29    21    22    1
    30    22    23    1
    31     5     6    1
    32    13     8   ar
    33     6     1    1
    34    23    18    1
    35    32    25   ar
@<TRIPOS>MOLECULE
*****
 32 35 0 0 0
SMALL
GASTEIGER

@<TRIPOS>ATOM
      1 N         139.3181  142.3189  160.1335 N.3     1  UNL1       -0.2616
      2 C         138.5097  142.3829  158.8716 C.3     1  UNL1        0.1051
      3 C         138.0419  141.1177  158.2155 C.3     1  UNL1        0.1595
      4 O         138.3825  139.7885  158.8214 O.3     1  UNL1       -0.3519
      5 C         139.1909  139.7244  160.0833 C.3     1  UNL1        0.1471
      6 C         139.6587  140.9896  160.7394 C.3     1  UNL1        0.1040
      7 C         139.7858  143.5841  160.7895 C.3     1  UNL1        0.1173
      8 C         139.4837  143.8342  162.2374 C.ar    1  UNL1       -0.0025
      9 C         140.5975  144.1427  163.1935 C.ar    1  UNL1       -0.0026
     10 C         140.2954  144.3928  164.6413 C.ar    1  UNL1       -0.0003
     11 C         138.8795  144.3344  165.1330 C.ar    1  UNL1       -0.0000
     12 C         137.7657  144.0259  164.1768 C.ar    1  UNL1       -0.0003
     13 C         138.0678  143.7758  162.7291 C.ar    1  UNL1       -0.0026
     14 O         142.0527  144.5266  159.9393 O.co2   1  UNL1       -0.5475
     15 C         140.5556  144.5992  159.9978 C.2     1  UNL1        0.0691
     16 O         139.8284  145.6871  159.2644 O.co2   1  UNL1       -0.5475
     17 C         139.5315  138.3952  160.6892 C.3     1  UNL1        0.1034
     18 N         140.3345  138.3313  161.9545 N.3     1  UNL1       -0.2704
     19 C         139.6389  138.2408  163.2804 C.3     1  UNL1        0.0759
     20 C         140.4419  138.1769  164.5458 C.3     1  UNL1        0.0609
     21 C         141.9404  138.2036  164.4853 C.3     1  UNL1        0.1687
     22 C         142.6360  138.2941  163.1594 C.3     1  UNL1        0.0609
     23 C         141.8330  138.3580  161.8941 C.3     1  UNL1        0.0759
     24 O         142.7434  138.1397  165.7507 O.3     1  UNL1       -0.4790
     25 C         142.7602  139.3105  166.6882 C.ar    1  UNL1        0.1393
     26 C         142.7730  140.7078  166.1429 C.ar    1  UNL1        0.0378
     27 C         142.7898  141.8786  167.0804 C.ar    1  UNL1        0.0154
     28 C         142.7938  141.6521  168.5632 C.ar    1  UNL1        0.0684
     29 CL        142.8106  142.8230  169.5007 Cl      1  UNL1       -0.0814
     30 C         142.7810  140.2548  169.1085 C.ar    1  UNL1        0.0712
     31 CL        142.7850  140.0283  170.5913 Cl      1  UNL1       -0.0813
     32 C         142.7642  139.0840  168.1710 C.ar    1  UNL1        0.0491
@<TRIPOS>UNITY_ATOM_ATTR
14 1
charge -1
@<TRIPOS>BOND
     1    14    15   ar
     2    15    16   ar
     3    15     7    1
     4     7     8    1
     5     8     9   ar
     6     9    10   ar
     7    10    11   ar
     8    11    12   ar
     9    12    13   ar
    10     7     1    1
    11     1     2    1
    12     2     3    1
    13     3     4    1
    14     4     5    1
    15     5    17    1
    16    17    18    1
    17    18    19    1
    18    19    20    1
    19    20    21    1
    20    21    24    1
    21    24    25    1
    22    25    26   ar
    23    26    27   ar
    24    27    28   ar
    25    28    29    1
    26    28    30   ar
    27    30    31    1
    28    30    32   ar
    29    21    22    1
    30    22    23    1
    31     5     6    1
    32    13     8   ar
    33     6     1    1
    34    23    18    1
    35    32    25   ar
@<TRIPOS>MOLECULE
*****
 32 35 0 0 0
SMALL
GASTEIGER

@<TRIPOS>ATOM
      1 N         141.1878  142.0005  160.6625 N.3     1  UNL1       -0.2616
      2 C         140.6738  141.8150  159.2656 C.3     1  UNL1        0.1051
      3 C         140.8242  140.4888  158.5810 C.3     1  UNL1        0.1595
      4 O         141.4887  139.3482  159.2932 O.3     1  UNL1       -0.3519
      5 C         142.0028  139.5337  160.6901 C.3     1  UNL1        0.1471
      6 C         141.8524  140.8598  161.3748 C.3     1  UNL1        0.1040
      7 C         141.0373  143.3266  161.3471 C.3     1  UNL1        0.1173
      8 C         139.9644  143.5214  162.3771 C.ar    1  UNL1       -0.0025
      9 C         138.6976  142.7219  162.3010 C.ar    1  UNL1       -0.0026
     10 C         137.6247  142.9167  163.3310 C.ar    1  UNL1       -0.0003
     11 C         137.8187  143.9111  164.4372 C.ar    1  UNL1       -0.0000
     12 C         139.0856  144.7106  164.5134 C.ar    1  UNL1       -0.0003
     13 C         140.1584  144.5158  163.4833 C.ar    1  UNL1       -0.0026
     14 O         143.2430  144.6368  161.7575 O.co2   1  UNL1       -0.5475
     15 C         141.9597  144.4579  161.0017 C.2     1  UNL1        0.0691
     16 O         141.5989  145.4103  159.9004 O.co2   1  UNL1       -0.5475
     17 C         142.6673  138.3930  161.4024 C.3     1  UNL1        0.1034
     18 N         142.8570  138.4457  162.8894 N.3     1  UNL1       -0.2704
     19 C         144.0962  139.0636  163.4660 C.3     1  UNL1        0.0759
     20 C         144.2858  139.1163  164.9531 C.3     1  UNL1        0.0609
     21 C         143.2362  138.5512  165.8635 C.3     1  UNL1        0.1687
     22 C         141.9970  137.9333  165.2869 C.3     1  UNL1        0.0609
     23 C         141.8073  137.8806  163.7998 C.3     1  UNL1        0.0759
     24 O         143.4258  138.6039  167.3505 O.3     1  UNL1       -0.4790
     25 C         142.5952  139.5378  168.1799 C.ar    1  UNL1        0.1393
     26 C         142.3942  139.2659  169.6413 C.ar    1  UNL1        0.0378
     27 C         141.5636  140.1998  170.4706 C.ar    1  UNL1        0.0154
     28 C         140.9340  141.4057  169.8386 C.ar    1  UNL1        0.0684
     29 CL        140.1034  142.3397  170.6681 Cl      1  UNL1       -0.0814
     30 C         141.1350  141.6777  168.3773 C.ar    1  UNL1        0.0712
     31 CL        140.5054  142.8835  167.7453 Cl      1  UNL1       -0.0813
     32 C         141.9656  140.7437  167.5479 C.ar    1  UNL1        0.0491
@<TRIPOS>UNITY_ATOM_ATTR
14 1
charge -1
@<TRIPOS>BOND
     1    14    15   ar
     2    15    16   ar
     3    15     7    1
     4     7     8    1
     5     8     9   ar
     6     9    10   ar
     7    10    11   ar
     8    11    12   ar
     9    12    13   ar
    10     7     1    1
    11     1     2    1
    12     2     3    1
    13     3     4    1
    14     4     5    1
    15     5    17    1
    16    17    18    1
    17    18    19    1
    18    19    20    1
    19    20    21    1
    20    21    24    1
    21    24    25    1
    22    25    26   ar
    23    26    27   ar
    24    27    28   ar
    25    28    29    1
    26    28    30   ar
    27    30    31    1
    28    30    32   ar
    29    21    22    1
    30    22    23    1
    31     5     6    1
    32    13     8   ar
    33     6     1    1
    34    23    18    1
    35    32    25   ar
@<TRIPOS>MOLECULE
*****
 32 35 0 0 0
SMALL
GASTEIGER

@<TRIPOS>ATOM
      1 N         140.5470  142.0601  160.4163 N.3     1  UNL1       -0.2616
      2 C         139.7332  141.5636  159.2582 C.3     1  UNL1        0.1051
      3 C         139.9646  140.1846  158.7154 C.3     1  UNL1        0.1595
      4 O         141.0097  139.3020  159.3306 O.3     1  UNL1       -0.3519
      5 C         141.8236  139.7984  160.4888 C.3     1  UNL1        0.1471
      6 C         141.5922  141.1775  161.0316 C.3     1  UNL1        0.1040
      7 C         140.3156  143.4392  160.9591 C.3     1  UNL1        0.1173
      8 C         139.6168  143.6201  162.2741 C.ar    1  UNL1       -0.0025
      9 C         140.1784  144.5606  163.2987 C.ar    1  UNL1       -0.0026
     10 C         139.4796  144.7415  164.6136 C.ar    1  UNL1       -0.0003
     11 C         138.2192  143.9818  164.9038 C.ar    1  UNL1       -0.0000
     12 C         137.6576  143.0413  163.8792 C.ar    1  UNL1       -0.0003
     13 C         138.3564  142.8604  162.5643 C.ar    1  UNL1       -0.0026
     14 O         139.8548  145.7942  159.9635 O.co2   1  UNL1       -0.5475
     15 C         140.7829  144.6372  160.1871 C.2     1  UNL1        0.0691
     16 O         142.1785  144.6784  159.6385 O.co2   1  UNL1       -0.5475
     17 C         142.8688  138.9159  161.1040 C.3     1  UNL1        0.1034
     18 N         143.0157  138.8550  162.5956 N.3     1  UNL1       -0.2704
     19 C         141.9877  138.1408  163.4219 C.3     1  UNL1        0.0759
     20 C         142.1346  138.0799  164.9135 C.3     1  UNL1        0.0609
     21 C         143.3096  138.7332  165.5786 C.3     1  UNL1        0.1687
     22 C         144.3377  139.4474  164.7523 C.3     1  UNL1        0.0609
     23 C         144.1907  139.5083  163.2607 C.3     1  UNL1        0.0759
     24 O         143.4566  138.6723  167.0702 O.3     1  UNL1       -0.4790
     25 C         142.5949  139.5343  167.9445 C.ar    1  UNL1        0.1393
     26 C         142.3342  139.1360  169.3670 C.ar    1  UNL1        0.0378
     27 C         141.4726  139.9980  170.2414 C.ar    1  UNL1        0.0154
     28 C         140.8716  141.2583  169.6933 C.ar    1  UNL1        0.0684
     29 CL        140.0100  142.1203  170.5677 Cl      1  UNL1       -0.0814
     30 C         141.1323  141.6566  168.2708 C.ar    1  UNL1        0.0712
     31 CL        140.5313  142.9170  167.7227 Cl      1  UNL1       -0.0813
     32 C         141.9940  140.7946  167.3964 C.ar    1  UNL1        0.0491
@<TRIPOS>UNITY_ATOM_ATTR
14 1
charge -1
@<TRIPOS>BOND
     1    14    15   ar
     2    15    16   ar
     3    15     7    1
     4     7     8    1
     5     8     9   ar
     6     9    10   ar
     7    10    11   ar
     8    11    12   ar
     9    12    13   ar
    10     7     1    1
    11     1     2    1
    12     2     3    1
    13     3     4    1
    14     4     5    1
    15     5    17    1
    16    17    18    1
    17    18    19    1
    18    19    20    1
    19    20    21    1
    20    21    24    1
    21    24    25    1
    22    25    26   ar
    23    26    27   ar
    24    27    28   ar
    25    28    29    1
    26    28    30   ar
    27    30    31    1
    28    30    32   ar
    29    21    22    1
    30    22    23    1
    31     5     6    1
    32    13     8   ar
    33     6     1    1
    34    23    18    1
    35    32    25   ar
@<TRIPOS>MOLECULE
*****
 32 35 0 0 0
SMALL
GASTEIGER

@<TRIPOS>ATOM
      1 N         141.0920  142.0283  160.2582 N.3     1  UNL1       -0.2616
      2 C         141.7562  141.3012  159.1268 C.3     1  UNL1        0.1051
      3 C         141.3294  139.9060  158.7786 C.3     1  UNL1        0.1595
      4 O         140.2384  139.2379  159.5617 O.3     1  UNL1       -0.3519
      5 C         139.5741  139.9651  160.6932 C.3     1  UNL1        0.1471
      6 C         140.0009  141.3603  161.0414 C.3     1  UNL1        0.1040
      7 C         141.5187  143.4236  160.6064 C.3     1  UNL1        0.1173
      8 C         142.3373  143.6720  161.8386 C.ar    1  UNL1       -0.0025
      9 C         142.0041  144.8230  162.7409 C.ar    1  UNL1       -0.0026
     10 C         142.8226  145.0713  163.9731 C.ar    1  UNL1       -0.0003
     11 C         143.9743  144.1687  164.3030 C.ar    1  UNL1       -0.0000
     12 C         144.3075  143.0177  163.4007 C.ar    1  UNL1       -0.0003
     13 C         143.4890  142.7693  162.1685 C.ar    1  UNL1       -0.0026
     14 O         142.1244  145.1556  158.7670 O.co2   1  UNL1       -0.5475
     15 C         141.1270  144.5703  159.7224 C.2     1  UNL1        0.0691
     16 O         139.7379  145.1319  159.7938 O.co2   1  UNL1       -0.5475
     17 C         138.4831  139.2970  161.4763 C.3     1  UNL1        0.1034
     18 N         138.5536  139.2535  162.9740 N.3     1  UNL1       -0.2704
     19 C         139.0529  138.0198  163.6658 C.3     1  UNL1        0.0759
     20 C         139.1234  137.9764  165.1636 C.3     1  UNL1        0.0609
     21 C         138.6947  139.1666  165.9694 C.3     1  UNL1        0.1687
     22 C         138.1955  140.4003  165.2776 C.3     1  UNL1        0.0609
     23 C         138.1249  140.4438  163.7799 C.3     1  UNL1        0.0759
     24 O         138.7652  139.1232  167.4671 O.3     1  UNL1       -0.4790
     25 C         139.6294  140.1016  168.2060 C.ar    1  UNL1        0.1393
     26 C         139.2536  140.5371  169.5913 C.ar    1  UNL1        0.0378
     27 C         140.1178  141.5155  170.3302 C.ar    1  UNL1        0.0154
     28 C         141.3577  142.0583  169.6837 C.ar    1  UNL1        0.0684
     29 CL        142.2219  143.0368  170.4227 Cl      1  UNL1       -0.0814
     30 C         141.7335  141.6228  168.2985 C.ar    1  UNL1        0.0712
     31 CL        142.9734  142.1656  167.6520 Cl      1  UNL1       -0.0813
     32 C         140.8693  140.6444  167.5595 C.ar    1  UNL1        0.0491
@<TRIPOS>UNITY_ATOM_ATTR
14 1
charge -1
@<TRIPOS>BOND
     1    14    15   ar
     2    15    16   ar
     3    15     7    1
     4     7     8    1
     5     8     9   ar
     6     9    10   ar
     7    10    11   ar
     8    11    12   ar
     9    12    13   ar
    10     7     1    1
    11     1     2    1
    12     2     3    1
    13     3     4    1
    14     4     5    1
    15     5    17    1
    16    17    18    1
    17    18    19    1
    18    19    20    1
    19    20    21    1
    20    21    24    1
    21    24    25    1
    22    25    26   ar
    23    26    27   ar
    24    27    28   ar
    25    28    29    1
    26    28    30   ar
    27    30    31    1
    28    30    32   ar
    29    21    22    1
    30    22    23    1
    31     5     6    1
    32    13     8   ar
    33     6     1    1
    34    23    18    1
    35    32    25   ar
@<TRIPOS>MOLECULE
*****
 32 35 0 0 0
SMALL
GASTEIGER

@<TRIPOS>ATOM
      1 N         141.5556  141.7415  160.0625 N.3     1  UNL1       -0.2616
      2 C         141.8077  141.6394  158.5874 C.3     1  UNL1        0.1051
      3 C         142.3163  140.3560  158.0005 C.3     1  UNL1        0.1595
      4 O         142.5728  139.1749  158.8887 O.3     1  UNL1       -0.3519
      5 C         142.3206  139.2770  160.3639 C.3     1  UNL1        0.1471
      6 C         141.8120  140.5603  160.9508 C.3     1  UNL1        0.1040
      7 C         141.0470  143.0248  160.6493 C.3     1  UNL1        0.1173
      8 C         141.8444  143.7361  161.7021 C.ar    1  UNL1       -0.0025
      9 C         141.1458  144.5548  162.7468 C.ar    1  UNL1       -0.0026
     10 C         141.9433  145.2660  163.7995 C.ar    1  UNL1       -0.0003
     11 C         143.4394  145.1584  163.8075 C.ar    1  UNL1       -0.0000
     12 C         144.1380  144.3397  162.7628 C.ar    1  UNL1       -0.0003
     13 C         143.3406  143.6285  161.7101 C.ar    1  UNL1       -0.0026
     14 O         138.4557  143.1331  160.8023 O.co2   1  UNL1       -0.5475
     15 C         139.7410  143.5969  160.1835 C.2     1  UNL1        0.0691
     16 O         139.7202  144.6328  159.0988 O.co2   1  UNL1       -0.5475
     17 C         142.5771  138.0958  161.2521 C.3     1  UNL1        0.1034
     18 N         142.6692  138.2806  162.7378 N.3     1  UNL1       -0.2704
     19 C         143.8829  138.9244  163.3398 C.3     1  UNL1        0.0759
     20 C         143.9750  139.1091  164.8255 C.3     1  UNL1        0.0609
     21 C         142.8533  138.6501  165.7093 C.3     1  UNL1        0.1687
     22 C         141.6396  138.0063  165.1074 C.3     1  UNL1        0.0609
     23 C         141.5475  137.8215  163.6216 C.3     1  UNL1        0.0759
     24 O         142.9454  138.8349  167.1950 O.3     1  UNL1       -0.4790
     25 C         142.2845  140.0133  167.8466 C.ar    1  UNL1        0.1393
     26 C         142.9312  141.3653  167.7841 C.ar    1  UNL1        0.0378
     27 C         142.2703  142.5437  168.4357 C.ar    1  UNL1        0.0154
     28 C         140.9626  142.3701  169.1499 C.ar    1  UNL1        0.0684
     29 CL        140.3017  143.5485  169.8015 Cl      1  UNL1       -0.0814
     30 C         140.3160  141.0181  169.2124 C.ar    1  UNL1        0.0712
     31 CL        139.0084  140.8445  169.9266 Cl      1  UNL1       -0.0813
     32 C         140.9769  139.8397  168.5608 C.ar    1  UNL1        0.0491
@<TRIPOS>UNITY_ATOM_ATTR
14 1
charge -1
@<TRIPOS>BOND
     1    14    15   ar
     2    15    16   ar
     3    15     7    1
     4     7     8    1
     5     8     9   ar
     6     9    10   ar
     7    10    11   ar
     8    11    12   ar
     9    12    13   ar
    10     7     1    1
    11     1     2    1
    12     2     3    1
    13     3     4    1
    14     4     5    1
    15     5    17    1
    16    17    18    1
    17    18    19    1
    18    19    20    1
    19    20    21    1
    20    21    24    1
    21    24    25    1
    22    25    26   ar
    23    26    27   ar
    24    27    28   ar
    25    28    29    1
    26    28    30   ar
    27    30    31    1
    28    30    32   ar
    29    21    22    1
    30    22    23    1
    31     5     6    1
    32    13     8   ar
    33     6     1    1
    34    23    18    1
    35    32    25   ar
@<TRIPOS>MOLECULE
*****
 32 35 0 0 0
SMALL
GASTEIGER

@<TRIPOS>ATOM
      1 N         142.5466  140.3127  159.6028 N.3     1  UNL1       -0.2616
      2 C         142.9031  139.5103  158.3866 C.3     1  UNL1        0.1051
      3 C         141.9128  138.5425  157.8098 C.3     1  UNL1        0.1595
      4 O         140.5661  138.3771  158.4492 O.3     1  UNL1       -0.3519
      5 C         140.2095  139.1795  159.6655 C.3     1  UNL1        0.1471
      6 C         141.1998  140.1473  160.2422 C.3     1  UNL1        0.1040
      7 C         143.5369  141.2806  160.1795 C.3     1  UNL1        0.1173
      8 C         144.1599  141.0086  161.5167 C.ar    1  UNL1       -0.0025
      9 C         143.9165  139.6983  162.2050 C.ar    1  UNL1       -0.0026
     10 C         144.5395  139.4264  163.5421 C.ar    1  UNL1       -0.0003
     11 C         145.4059  140.4648  164.1909 C.ar    1  UNL1       -0.0000
     12 C         145.6494  141.7751  163.5026 C.ar    1  UNL1       -0.0003
     13 C         145.0264  142.0470  162.1655 C.ar    1  UNL1       -0.0026
     14 O         145.1147  142.5259  158.5334 O.co2   1  UNL1       -0.5475
     15 C         143.9042  142.5203  159.4192 C.2     1  UNL1        0.0691
     16 O         143.0609  143.7545  159.5446 O.co2   1  UNL1       -0.5475
     17 C         138.8628  139.0140  160.3048 C.3     1  UNL1        0.1034
     18 N         138.7227  139.1134  161.7950 N.3     1  UNL1       -0.2704
     19 C         138.2183  140.3813  162.4179 C.3     1  UNL1        0.0759
     20 C         138.0782  140.4807  163.9081 C.3     1  UNL1        0.0609
     21 C         138.4425  139.3123  164.7752 C.3     1  UNL1        0.1687
     22 C         138.9469  138.0445  164.1523 C.3     1  UNL1        0.0609
     23 C         139.0870  137.9450  162.6621 C.3     1  UNL1        0.0759
     24 O         138.3024  139.4117  166.2654 O.3     1  UNL1       -0.4790
     25 C         139.4920  139.7632  167.1087 C.ar    1  UNL1        0.1393
     26 C         140.8348  139.9558  166.4684 C.ar    1  UNL1        0.0378
     27 C         142.0243  140.3073  167.3118 C.ar    1  UNL1        0.0154
     28 C         141.8712  140.4663  168.7954 C.ar    1  UNL1        0.0684
     29 CL        143.0609  140.8178  169.6388 Cl      1  UNL1       -0.0814
     30 C         140.5285  140.2737  169.4358 C.ar    1  UNL1        0.0712
     31 CL        140.3754  140.4326  170.9194 Cl      1  UNL1       -0.0813
     32 C         139.3389  139.9221  168.5924 C.ar    1  UNL1        0.0491
@<TRIPOS>UNITY_ATOM_ATTR
14 1
charge -1
@<TRIPOS>BOND
     1    14    15   ar
     2    15    16   ar
     3    15     7    1
     4     7     8    1
     5     8     9   ar
     6     9    10   ar
     7    10    11   ar
     8    11    12   ar
     9    12    13   ar
    10     7     1    1
    11     1     2    1
    12     2     3    1
    13     3     4    1
    14     4     5    1
    15     5    17    1
    16    17    18    1
    17    18    19    1
    18    19    20    1
    19    20    21    1
    20    21    24    1
    21    24    25    1
    22    25    26   ar
    23    26    27   ar
    24    27    28   ar
    25    28    29    1
    26    28    30   ar
    27    30    31    1
    28    30    32   ar
    29    21    22    1
    30    22    23    1
    31     5     6    1
    32    13     8   ar
    33     6     1    1
    34    23    18    1
    35    32    25   ar
@<TRIPOS>MOLECULE
*****
 32 35 0 0 0
SMALL
GASTEIGER

@<TRIPOS>ATOM
      1 N         141.9680  143.1350  160.3142 N.3     1  UNL1       -0.2616
      2 C         141.8415  144.1017  159.1743 C.3     1  UNL1        0.1051
      3 C         140.4843  144.5435  158.7127 C.3     1  UNL1        0.1595
      4 O         139.2538  144.0186  159.3911 O.3     1  UNL1       -0.3519
      5 C         139.3803  143.0519  160.5311 C.3     1  UNL1        0.1471
      6 C         140.7374  142.6101  160.9926 C.3     1  UNL1        0.1040
      7 C         143.3251  142.6932  160.7758 C.3     1  UNL1        0.1173
      8 C         143.7724  142.9851  162.1776 C.ar    1  UNL1       -0.0025
      9 C         144.5701  141.9673  162.9375 C.ar    1  UNL1       -0.0026
     10 C         145.0173  142.2592  164.3392 C.ar    1  UNL1       -0.0003
     11 C         144.6668  143.5689  164.9809 C.ar    1  UNL1       -0.0000
     12 C         143.8690  144.5867  164.2209 C.ar    1  UNL1       -0.0003
     13 C         143.4218  144.2948  162.8192 C.ar    1  UNL1       -0.0026
     14 O         144.0682  140.4831  159.6298 O.co2   1  UNL1       -0.5475
     15 C         144.2350  141.9595  159.8357 C.2     1  UNL1        0.0691
     16 O         145.3117  142.7023  159.1014 O.co2   1  UNL1       -0.5475
     17 C         138.1498  142.5270  161.2094 C.3     1  UNL1        0.1034
     18 N         138.2664  141.7973  162.5148 N.3     1  UNL1       -0.2704
     19 C         138.2039  140.2989  162.5446 C.3     1  UNL1        0.0759
     20 C         138.3206  139.5692  163.8499 C.3     1  UNL1        0.0609
     21 C         138.4996  140.3379  165.1254 C.3     1  UNL1        0.1687
     22 C         138.5620  141.8362  165.0957 C.3     1  UNL1        0.0609
     23 C         138.4454  142.5660  163.7903 C.3     1  UNL1        0.0759
     24 O         138.6162  139.6081  166.4308 O.3     1  UNL1       -0.4790
     25 C         139.7726  139.8861  167.3447 C.ar    1  UNL1        0.1393
     26 C         141.1767  139.8106  166.8221 C.ar    1  UNL1        0.0378
     27 C         142.3331  140.0886  167.7361 C.ar    1  UNL1        0.0154
     28 C         142.0856  140.4421  169.1726 C.ar    1  UNL1        0.0684
     29 CL        143.2421  140.7201  170.0866 Cl      1  UNL1       -0.0814
     30 C         140.6816  140.5177  169.6953 C.ar    1  UNL1        0.0712
     31 CL        140.4341  140.8712  171.1318 Cl      1  UNL1       -0.0813
     32 C         139.5251  140.2397  168.7813 C.ar    1  UNL1        0.0491
@<TRIPOS>UNITY_ATOM_ATTR
14 1
charge -1
@<TRIPOS>BOND
     1    14    15   ar
     2    15    16   ar
     3    15     7    1
     4     7     8    1
     5     8     9   ar
     6     9    10   ar
     7    10    11   ar
     8    11    12   ar
     9    12    13   ar
    10     7     1    1
    11     1     2    1
    12     2     3    1
    13     3     4    1
    14     4     5    1
    15     5    17    1
    16    17    18    1
    17    18    19    1
    18    19    20    1
    19    20    21    1
    20    21    24    1
    21    24    25    1
    22    25    26   ar
    23    26    27   ar
    24    27    28   ar
    25    28    29    1
    26    28    30   ar
    27    30    31    1
    28    30    32   ar
    29    21    22    1
    30    22    23    1
    31     5     6    1
    32    13     8   ar
    33     6     1    1
    34    23    18    1
    35    32    25   ar
@<TRIPOS>MOLECULE
*****
 32 35 0 0 0
SMALL
GASTEIGER

@<TRIPOS>ATOM
      1 N         140.5444  141.7877  159.8253 N.3     1  UNL1       -0.2616
      2 C         140.4432  142.3089  158.4224 C.3     1  UNL1        0.1051
      3 C         141.6125  143.0096  157.7965 C.3     1  UNL1        0.1595
      4 O         142.8829  143.1892  158.5734 O.3     1  UNL1       -0.3519
      5 C         142.9841  142.6680  159.9764 C.3     1  UNL1        0.1471
      6 C         141.8148  141.9673  160.6023 C.3     1  UNL1        0.1040
      7 C         139.3751  141.0870  160.4512 C.3     1  UNL1        0.1173
      8 C         138.8231  141.5710  161.7593 C.ar    1  UNL1       -0.0025
      9 C         138.2098  142.9365  161.8554 C.ar    1  UNL1       -0.0026
     10 C         137.6579  143.4204  163.1634 C.ar    1  UNL1       -0.0003
     11 C         137.7194  142.5389  164.3755 C.ar    1  UNL1       -0.0000
     12 C         138.3327  141.1734  164.2795 C.ar    1  UNL1       -0.0003
     13 C         138.8846  140.6895  162.9714 C.ar    1  UNL1       -0.0026
     14 O         137.6679  140.1028  158.7580 O.co2   1  UNL1       -0.5475
     15 C         138.7577  139.9023  159.7690 C.2     1  UNL1        0.0691
     16 O         139.2302  138.5171  160.0979 O.co2   1  UNL1       -0.5475
     17 C         144.2545  142.8476  160.7533 C.3     1  UNL1        0.1034
     18 N         144.2171  142.8919  162.2522 N.3     1  UNL1       -0.2704
     19 C         143.8650  144.1687  162.9563 C.3     1  UNL1        0.0759
     20 C         143.8276  144.2130  164.4552 C.3     1  UNL1        0.0609
     21 C         144.1423  142.9805  165.2500 C.3     1  UNL1        0.1687
     22 C         144.4945  141.7037  164.5459 C.3     1  UNL1        0.0609
     23 C         144.5319  141.6594  163.0471 C.3     1  UNL1        0.0759
     24 O         144.1049  143.0248  166.7489 O.3     1  UNL1       -0.4790
     25 C         142.9183  142.4784  167.4860 C.ar    1  UNL1        0.1393
     26 C         141.6089  142.3041  166.7752 C.ar    1  UNL1        0.0378
     27 C         140.4223  141.7578  167.5122 C.ar    1  UNL1        0.0154
     28 C         140.5450  141.3856  168.9601 C.ar    1  UNL1        0.0684
     29 CL        139.3583  140.8391  169.6972 Cl      1  UNL1       -0.0814
     30 C         141.8543  141.5598  169.6710 C.ar    1  UNL1        0.0712
     31 CL        141.9770  141.1876  171.1189 Cl      1  UNL1       -0.0813
     32 C         143.0410  142.1062  168.9339 C.ar    1  UNL1        0.0491
@<TRIPOS>UNITY_ATOM_ATTR
14 1
charge -1
@<TRIPOS>BOND
     1    14    15   ar
     2    15    16   ar
     3    15     7    1
     4     7     8    1
     5     8     9   ar
     6     9    10   ar
     7    10    11   ar
     8    11    12   ar
     9    12    13   ar
    10     7     1    1
    11     1     2    1
    12     2     3    1
    13     3     4    1
    14     4     5    1
    15     5    17    1
    16    17    18    1
    17    18    19    1
    18    19    20    1
    19    20    21    1
    20    21    24    1
    21    24    25    1
    22    25    26   ar
    23    26    27   ar
    24    27    28   ar
    25    28    29    1
    26    28    30   ar
    27    30    31    1
    28    30    32   ar
    29    21    22    1
    30    22    23    1
    31     5     6    1
    32    13     8   ar
    33     6     1    1
    34    23    18    1
    35    32    25   ar
