@<TRIPOS>MOLECULE
*****
 34 39 0 0 0
SMALL
GASTEIGER

@<TRIPOS>ATOM
      1 C         139.6654  142.6661  162.8380 C.ar    1  UNL1        0.0478
      2 C         138.3485  141.9814  162.6217 C.ar    1  UNL1        0.0176
      3 C         137.8322  141.0095  163.6409 C.ar    1  UNL1        0.0378
      4 C         138.6329  140.7222  164.8764 C.ar    1  UNL1        0.1347
      5 C         139.9499  141.4069  165.0926 C.ar    1  UNL1        0.0144
      6 C         140.4661  142.3788  164.0735 C.ar    1  UNL1        0.0133
      7 C         140.7505  141.1197  166.3281 C.3     1  UNL1        0.0480
      8 C         140.2343  140.1478  167.3473 C.3     1  UNL1        0.1060
      9 C         138.9173  139.4630  167.1310 C.3     1  UNL1        0.2215
     10 O         138.1166  139.7502  165.8956 O.3     1  UNL1       -0.4743
     11 C         140.9120  145.0126  160.3774 C.3     1  UNL1        0.1145
     12 C         141.0785  143.5417  160.6202 C.3     1  UNL1        0.1099
     13 N         140.1818  143.6381  161.8188 N.pl3   1  UNL1       -0.3045
     14 C         140.0152  145.1089  161.5759 C.3     1  UNL1        0.1099
     15 N         141.4283  145.9845  159.3582 N.3     1  UNL1       -0.1813
     16 H         141.0686  146.9028  159.6184 H       1  UNL1        0.1485
     17 O         139.6672  145.5578  158.2550 O.2     1  UNL1       -0.1575
     18 S         141.1076  145.7894  157.9059 S.O2    1  UNL1        0.0408
     19 O         142.5479  146.0209  157.5567 O.2     1  UNL1       -0.1575
     20 C         140.7869  145.5943  156.4536 C.3     1  UNL1        0.1688
     21 C         140.1173  146.6909  155.6795 C.3     1  UNL1        0.0253
     22 C         138.9505  147.6112  155.4752 C.3     1  UNL1        0.0019
     23 C         140.1243  147.6700  154.5431 C.3     1  UNL1        0.0019
     24 N         141.0350  139.8605  168.5828 N.3     1  UNL1       -0.2704
     25 C         142.4180  139.3474  168.8550 C.3     1  UNL1        0.0736
     26 C         142.1673  139.4543  170.3300 C.3     1  UNL1        0.0346
     27 C         140.7844  139.9674  170.0578 C.3     1  UNL1        0.0736
     28 C         142.0675  141.8044  166.5444 C.3     1  UNL1        0.0323
     29 C         143.2311  141.4915  165.6510 C.ar    1  UNL1       -0.0218
     30 C         144.0839  142.6024  165.1135 C.ar    1  UNL1       -0.0043
     31 C         145.2475  142.2896  164.2201 C.ar    1  UNL1       -0.0003
     32 C         145.5584  140.8660  163.8642 C.ar    1  UNL1       -0.0000
     33 C         144.7056  139.7551  164.4017 C.ar    1  UNL1       -0.0003
     34 C         143.5420  140.0680  165.2951 C.ar    1  UNL1       -0.0043
@<TRIPOS>BOND
     1    17    18    2
     2    18    19    2
     3    18    20    1
     4    20    21    1
     5    21    22    1
     6    22    23    1
     7    18    15    1
     8    15    11    1
     9    11    12    1
    10    12    13    1
    11    13     1    1
    12     1     2   ar
    13     2     3   ar
    14     3     4   ar
    15     4     5   ar
    16     5     6   ar
    17     5     7    1
    18     7    28    1
    19    28    29    1
    20    29    30   ar
    21    30    31   ar
    22    31    32   ar
    23    32    33   ar
    24    33    34   ar
    25     7     8    1
    26     8    24    1
    27    24    25    1
    28    25    26    1
    29    26    27    1
    30     8     9    1
    31     9    10    1
    32    13    14    1
    33    23    21    1
    34    14    11    1
    35     6     1   ar
    36    34    29   ar
    37    27    24    1
    38    10     4    1
    39    15    16    1
@<TRIPOS>MOLECULE
*****
 34 39 0 0 0
SMALL
GASTEIGER

@<TRIPOS>ATOM
      1 C         140.7180  138.5118  161.1565 C.ar    1  UNL1        0.0478
      2 C         139.3185  138.0056  161.3436 C.ar    1  UNL1        0.0176
      3 C         138.6530  138.1183  162.6831 C.ar    1  UNL1        0.0378
      4 C         139.3869  138.7373  163.8355 C.ar    1  UNL1        0.1347
      5 C         140.7865  139.2435  163.6485 C.ar    1  UNL1        0.0144
      6 C         141.4520  139.1308  162.3090 C.ar    1  UNL1        0.0133
      7 C         141.5204  139.8625  164.8009 C.3     1  UNL1        0.0480
      8 C         140.8549  139.9752  166.1404 C.3     1  UNL1        0.1060
      9 C         139.4553  139.4690  166.3275 C.3     1  UNL1        0.2215
     10 O         138.7213  138.8500  165.1751 O.3     1  UNL1       -0.4743
     11 C         142.3249  138.2397  157.9226 C.3     1  UNL1        0.1145
     12 C         140.9844  138.7092  158.4048 C.3     1  UNL1        0.1099
     13 N         141.3837  138.3991  159.8170 N.pl3   1  UNL1       -0.3045
     14 C         142.7242  137.9296  159.3348 C.3     1  UNL1        0.1099
     15 N         142.9905  138.1270  156.5831 N.3     1  UNL1       -0.1813
     16 H         142.3408  138.5132  155.8981 H       1  UNL1        0.1485
     17 O         142.0552  136.2340  156.3780 O.2     1  UNL1       -0.1575
     18 S         143.4158  136.7841  156.0675 S.O2    1  UNL1        0.0408
     19 O         144.7763  137.3341  155.7570 O.2     1  UNL1       -0.1575
     20 C         143.8410  135.4412  155.5520 C.3     1  UNL1        0.1688
     21 C         143.7221  134.2295  156.4280 C.3     1  UNL1        0.0253
     22 C         144.0892  133.4913  157.6812 C.3     1  UNL1        0.0019
     23 C         143.1488  132.8687  156.6923 C.3     1  UNL1        0.0019
     24 N         141.5888  140.5942  167.2929 N.3     1  UNL1       -0.2704
     25 C         141.6178  141.9546  167.9244 C.3     1  UNL1        0.0736
     26 C         142.6268  141.4696  168.9227 C.3     1  UNL1        0.0346
     27 C         142.5978  140.1094  168.2913 C.3     1  UNL1        0.0736
     28 C         142.9199  140.3688  164.6139 C.3     1  UNL1        0.0323
     29 C         143.1688  141.8373  164.4357 C.ar    1  UNL1       -0.0218
     30 C         144.1664  142.5401  165.3080 C.ar    1  UNL1       -0.0043
     31 C         144.4153  144.0085  165.1299 C.ar    1  UNL1       -0.0003
     32 C         143.6665  144.7742  164.0795 C.ar    1  UNL1       -0.0000
     33 C         142.6689  144.0713  163.2072 C.ar    1  UNL1       -0.0003
     34 C         142.4201  142.6028  163.3854 C.ar    1  UNL1       -0.0043
@<TRIPOS>BOND
     1    17    18    2
     2    18    19    2
     3    18    20    1
     4    20    21    1
     5    21    22    1
     6    22    23    1
     7    18    15    1
     8    15    11    1
     9    11    12    1
    10    12    13    1
    11    13     1    1
    12     1     2   ar
    13     2     3   ar
    14     3     4   ar
    15     4     5   ar
    16     5     6   ar
    17     5     7    1
    18     7    28    1
    19    28    29    1
    20    29    30   ar
    21    30    31   ar
    22    31    32   ar
    23    32    33   ar
    24    33    34   ar
    25     7     8    1
    26     8    24    1
    27    24    25    1
    28    25    26    1
    29    26    27    1
    30     8     9    1
    31     9    10    1
    32    13    14    1
    33    23    21    1
    34    14    11    1
    35     6     1   ar
    36    34    29   ar
    37    27    24    1
    38    10     4    1
    39    15    16    1
@<TRIPOS>MOLECULE
*****
 34 39 0 0 0
SMALL
GASTEIGER

@<TRIPOS>ATOM
      1 C         140.7791  138.5058  162.8046 C.ar    1  UNL1        0.0478
      2 C         139.5785  137.6681  163.1311 C.ar    1  UNL1        0.0176
      3 C         138.9057  137.8090  164.4643 C.ar    1  UNL1        0.0378
      4 C         139.4337  138.7876  165.4711 C.ar    1  UNL1        0.1347
      5 C         140.6344  139.6253  165.1447 C.ar    1  UNL1        0.0144
      6 C         141.3071  139.4844  163.8114 C.ar    1  UNL1        0.0133
      7 C         141.1623  140.6039  166.1514 C.3     1  UNL1        0.0480
      8 C         140.4896  140.7448  167.4847 C.3     1  UNL1        0.1060
      9 C         139.2889  139.9071  167.8112 C.3     1  UNL1        0.2215
     10 O         138.7609  138.9285  166.8044 O.3     1  UNL1       -0.4743
     11 C         142.4034  138.1656  159.5859 C.3     1  UNL1        0.1145
     12 C         142.7263  137.7391  160.9873 C.3     1  UNL1        0.1099
     13 N         141.4519  138.3649  161.4714 N.pl3   1  UNL1       -0.3045
     14 C         141.1290  138.7914  160.0700 C.3     1  UNL1        0.1099
     15 N         143.0762  138.0247  158.2527 N.3     1  UNL1       -0.1813
     16 H         143.1200  138.9585  157.8448 H       1  UNL1        0.1485
     17 O         142.0435  138.3215  156.4235 O.2     1  UNL1       -0.1575
     18 S         142.4889  137.1228  157.2078 S.O2    1  UNL1        0.0408
     19 O         142.9341  135.9242  157.9919 O.2     1  UNL1       -0.1575
     20 C         141.9015  136.2211  156.1629 C.3     1  UNL1        0.1688
     21 C         142.4638  134.8457  155.9571 C.3     1  UNL1        0.0253
     22 C         143.6348  133.9480  155.6869 C.3     1  UNL1        0.0019
     23 C         142.2667  133.3612  155.8709 C.3     1  UNL1        0.0019
     24 N         141.0176  141.7234  168.4914 N.3     1  UNL1       -0.2704
     25 C         142.1354  141.7171  169.4917 C.3     1  UNL1        0.0736
     26 C         141.7642  143.1073  169.9152 C.3     1  UNL1        0.0346
     27 C         140.6465  143.1137  168.9150 C.3     1  UNL1        0.0736
     28 C         142.3630  141.4415  165.8250 C.3     1  UNL1        0.0323
     29 C         142.1922  142.7549  165.1206 C.ar    1  UNL1       -0.0218
     30 C         143.3959  143.5115  164.6423 C.ar    1  UNL1       -0.0043
     31 C         143.2251  144.8248  163.9380 C.ar    1  UNL1       -0.0003
     32 C         141.8507  145.3815  163.7120 C.ar    1  UNL1       -0.0000
     33 C         140.6470  144.6249  164.1903 C.ar    1  UNL1       -0.0003
     34 C         140.8178  143.3116  164.8947 C.ar    1  UNL1       -0.0043
@<TRIPOS>BOND
     1    17    18    2
     2    18    19    2
     3    18    20    1
     4    20    21    1
     5    21    22    1
     6    22    23    1
     7    18    15    1
     8    15    11    1
     9    11    12    1
    10    12    13    1
    11    13     1    1
    12     1     2   ar
    13     2     3   ar
    14     3     4   ar
    15     4     5   ar
    16     5     6   ar
    17     5     7    1
    18     7    28    1
    19    28    29    1
    20    29    30   ar
    21    30    31   ar
    22    31    32   ar
    23    32    33   ar
    24    33    34   ar
    25     7     8    1
    26     8    24    1
    27    24    25    1
    28    25    26    1
    29    26    27    1
    30     8     9    1
    31     9    10    1
    32    13    14    1
    33    23    21    1
    34    14    11    1
    35     6     1   ar
    36    34    29   ar
    37    27    24    1
    38    10     4    1
    39    15    16    1
@<TRIPOS>MOLECULE
*****
 34 39 0 0 0
SMALL
GASTEIGER

@<TRIPOS>ATOM
      1 C         140.7880  138.5539  163.4013 C.ar    1  UNL1        0.0478
      2 C         139.5413  137.8109  163.7800 C.ar    1  UNL1        0.0176
      3 C         138.9250  138.0196  165.1315 C.ar    1  UNL1        0.0378
      4 C         139.5555  138.9714  166.1043 C.ar    1  UNL1        0.1347
      5 C         140.8023  139.7145  165.7257 C.ar    1  UNL1        0.0144
      6 C         141.4185  139.5057  164.3742 C.ar    1  UNL1        0.0133
      7 C         141.4328  140.6663  166.6986 C.3     1  UNL1        0.0480
      8 C         140.8166  140.8751  168.0501 C.3     1  UNL1        0.1060
      9 C         139.5697  140.1320  168.4288 C.3     1  UNL1        0.2215
     10 O         138.9392  139.1802  167.4559 O.3     1  UNL1       -0.4743
     11 C         142.2759  138.0500  160.1384 C.3     1  UNL1        0.1145
     12 C         140.9095  138.4186  160.6356 C.3     1  UNL1        0.1099
     13 N         141.4044  138.3452  162.0498 N.pl3   1  UNL1       -0.3045
     14 C         142.7707  137.9767  161.5525 C.3     1  UNL1        0.1099
     15 N         142.8921  137.8413  158.7869 N.3     1  UNL1       -0.1813
     16 H         143.8272  137.4657  158.9445 H       1  UNL1        0.1485
     17 O         141.9390  138.4486  156.9916 O.2     1  UNL1       -0.1575
     18 S         143.0434  138.9987  157.8447 S.O2    1  UNL1        0.0408
     19 O         144.1477  139.5488  158.6978 O.2     1  UNL1       -0.1575
     20 C         143.1947  140.1560  156.9026 C.3     1  UNL1        0.1688
     21 C         144.5285  140.4484  156.2818 C.3     1  UNL1        0.0253
     22 C         145.6788  141.3842  156.0552 C.3     1  UNL1        0.0019
     23 C         145.6886  140.0192  155.4333 C.3     1  UNL1        0.0019
     24 N         141.4471  141.8269  169.0230 N.3     1  UNL1       -0.2704
     25 C         141.1393  143.2157  169.4991 C.3     1  UNL1        0.0736
     26 C         142.3387  143.1729  170.3988 C.3     1  UNL1        0.0346
     27 C         142.6464  141.7843  169.9228 C.3     1  UNL1        0.0736
     28 C         142.6796  141.4094  166.3200 C.3     1  UNL1        0.0323
     29 C         142.5875  142.6531  165.4864 C.ar    1  UNL1       -0.0218
     30 C         143.8381  143.3479  165.0354 C.ar    1  UNL1       -0.0043
     31 C         143.7461  144.5916  164.2019 C.ar    1  UNL1       -0.0003
     32 C         142.4035  145.1406  163.8194 C.ar    1  UNL1       -0.0000
     33 C         141.1530  144.4458  164.2705 C.ar    1  UNL1       -0.0003
     34 C         141.2450  143.2020  165.1040 C.ar    1  UNL1       -0.0043
@<TRIPOS>BOND
     1    17    18    2
     2    18    19    2
     3    18    20    1
     4    20    21    1
     5    21    22    1
     6    22    23    1
     7    18    15    1
     8    15    11    1
     9    11    12    1
    10    12    13    1
    11    13     1    1
    12     1     2   ar
    13     2     3   ar
    14     3     4   ar
    15     4     5   ar
    16     5     6   ar
    17     5     7    1
    18     7    28    1
    19    28    29    1
    20    29    30   ar
    21    30    31   ar
    22    31    32   ar
    23    32    33   ar
    24    33    34   ar
    25     7     8    1
    26     8    24    1
    27    24    25    1
    28    25    26    1
    29    26    27    1
    30     8     9    1
    31     9    10    1
    32    13    14    1
    33    23    21    1
    34    14    11    1
    35     6     1   ar
    36    34    29   ar
    37    27    24    1
    38    10     4    1
    39    15    16    1
@<TRIPOS>MOLECULE
*****
 34 39 0 0 0
SMALL
GASTEIGER

@<TRIPOS>ATOM
      1 C         143.8037  140.7704  163.2024 C.ar    1  UNL1        0.0478
      2 C         144.4655  139.4623  163.5200 C.ar    1  UNL1        0.0176
      3 C         144.3105  138.8548  164.8826 C.ar    1  UNL1        0.0378
      4 C         143.4935  139.5553  165.9276 C.ar    1  UNL1        0.1347
      5 C         142.8317  140.8633  165.6099 C.ar    1  UNL1        0.0144
      6 C         142.9868  141.4709  164.2473 C.ar    1  UNL1        0.0133
      7 C         142.0148  141.5638  166.6549 C.3     1  UNL1        0.0480
      8 C         141.8597  140.9562  168.0175 C.3     1  UNL1        0.1060
      9 C         142.5215  139.6481  168.3352 C.3     1  UNL1        0.2215
     10 O         143.3385  138.9476  167.2903 O.3     1  UNL1       -0.4743
     11 C         144.1781  142.2374  159.9127 C.3     1  UNL1        0.1145
     12 C         144.8421  142.4336  161.2433 C.3     1  UNL1        0.1099
     13 N         143.9588  141.3780  161.8397 N.pl3   1  UNL1       -0.3045
     14 C         143.2948  141.1818  160.5090 C.3     1  UNL1        0.1099
     15 N         144.3332  142.8450  158.5501 N.3     1  UNL1       -0.1813
     16 H         143.3939  142.9544  158.1678 H       1  UNL1        0.1485
     17 O         143.9062  141.4818  156.9818 O.2     1  UNL1       -0.1575
     18 S         145.1474  142.1429  157.5040 S.O2    1  UNL1        0.0408
     19 O         146.3884  142.8039  158.0261 O.2     1  UNL1       -0.1575
     20 C         145.9614  141.4407  156.4579 C.3     1  UNL1        0.1688
     21 C         146.8089  142.2351  155.5088 C.3     1  UNL1        0.0253
     22 C         148.0558  142.3758  154.6869 C.3     1  UNL1        0.0019
     23 C         147.0301  143.4702  154.6869 C.3     1  UNL1        0.0019
     24 N         141.0428  141.6567  169.0625 N.3     1  UNL1       -0.2704
     25 C         139.7010  141.4246  169.6917 C.3     1  UNL1        0.0736
     26 C         139.8875  142.6473  170.5403 C.3     1  UNL1        0.0346
     27 C         141.2292  142.8794  169.9112 C.3     1  UNL1        0.0736
     28 C         141.3529  142.8718  166.3373 C.3     1  UNL1        0.0323
     29 C         140.0460  142.8919  165.6012 C.ar    1  UNL1       -0.0218
     30 C         139.4698  144.1948  165.1316 C.ar    1  UNL1       -0.0043
     31 C         138.1629  144.2149  164.3956 C.ar    1  UNL1       -0.0003
     32 C         137.4323  142.9322  164.1292 C.ar    1  UNL1       -0.0000
     33 C         138.0086  141.6293  164.5988 C.ar    1  UNL1       -0.0003
     34 C         139.3155  141.6093  165.3348 C.ar    1  UNL1       -0.0043
@<TRIPOS>BOND
     1    17    18    2
     2    18    19    2
     3    18    20    1
     4    20    21    1
     5    21    22    1
     6    22    23    1
     7    18    15    1
     8    15    11    1
     9    11    12    1
    10    12    13    1
    11    13     1    1
    12     1     2   ar
    13     2     3   ar
    14     3     4   ar
    15     4     5   ar
    16     5     6   ar
    17     5     7    1
    18     7    28    1
    19    28    29    1
    20    29    30   ar
    21    30    31   ar
    22    31    32   ar
    23    32    33   ar
    24    33    34   ar
    25     7     8    1
    26     8    24    1
    27    24    25    1
    28    25    26    1
    29    26    27    1
    30     8     9    1
    31     9    10    1
    32    13    14    1
    33    23    21    1
    34    14    11    1
    35     6     1   ar
    36    34    29   ar
    37    27    24    1
    38    10     4    1
    39    15    16    1
@<TRIPOS>MOLECULE
*****
 34 39 0 0 0
SMALL
GASTEIGER

@<TRIPOS>ATOM
      1 C         139.7128  138.8694  158.8886 C.ar    1  UNL1        0.0478
      2 C         138.8115  139.9637  158.3987 C.ar    1  UNL1        0.0176
      3 C         138.0578  140.8105  159.3808 C.ar    1  UNL1        0.0378
      4 C         138.2053  140.5630  160.8529 C.ar    1  UNL1        0.1347
      5 C         139.1066  139.4687  161.3428 C.ar    1  UNL1        0.0144
      6 C         139.8604  138.6219  160.3606 C.ar    1  UNL1        0.0133
      7 C         139.2542  139.2211  162.8148 C.3     1  UNL1        0.0480
      8 C         138.5004  140.0679  163.7970 C.3     1  UNL1        0.1060
      9 C         137.5990  141.1623  163.3071 C.3     1  UNL1        0.2215
     10 O         137.4515  141.4098  161.8351 O.3     1  UNL1       -0.4743
     11 C         141.5326  136.8248  156.5173 C.3     1  UNL1        0.1145
     12 C         140.0972  137.2239  156.6915 C.3     1  UNL1        0.1099
     13 N         140.4667  138.0225  157.9064 N.pl3   1  UNL1       -0.3045
     14 C         141.9021  137.6234  157.7322 C.3     1  UNL1        0.1099
     15 N         142.2864  135.9780  155.5352 N.3     1  UNL1       -0.1813
     16 H         141.9793  136.2621  154.6049 H       1  UNL1        0.1485
     17 O         141.5137  134.4831  154.2434 O.2     1  UNL1       -0.1575
     18 S         142.1725  134.4833  155.5911 S.O2    1  UNL1        0.0408
     19 O         142.8313  134.4835  156.9387 O.2     1  UNL1       -0.1575
     20 C         142.0587  132.9887  155.6469 C.3     1  UNL1        0.1688
     21 C         143.2199  132.1652  156.1196 C.3     1  UNL1        0.0253
     22 C         144.6413  131.7127  155.9618 C.3     1  UNL1        0.0019
     23 C         143.8098  131.1913  157.0962 C.3     1  UNL1        0.0019
     24 N         138.6480  139.8204  165.2691 N.3     1  UNL1       -0.2704
     25 C         139.4118  140.4729  166.3831 C.3     1  UNL1        0.0736
     26 C         138.8567  139.4704  167.3509 C.3     1  UNL1        0.0346
     27 C         138.0929  138.8180  166.2370 C.3     1  UNL1        0.0736
     28 C         140.1555  138.1268  163.3047 C.3     1  UNL1        0.0323
     29 C         141.5239  138.4577  163.8226 C.ar    1  UNL1       -0.0218
     30 C         142.5006  139.1869  162.9484 C.ar    1  UNL1       -0.0043
     31 C         143.8689  139.5178  163.4661 C.ar    1  UNL1       -0.0003
     32 C         144.2607  139.1193  164.8582 C.ar    1  UNL1       -0.0000
     33 C         143.2840  138.3901  165.7325 C.ar    1  UNL1       -0.0003
     34 C         141.9156  138.0592  165.2146 C.ar    1  UNL1       -0.0043
@<TRIPOS>BOND
     1    17    18    2
     2    18    19    2
     3    18    20    1
     4    20    21    1
     5    21    22    1
     6    22    23    1
     7    18    15    1
     8    15    11    1
     9    11    12    1
    10    12    13    1
    11    13     1    1
    12     1     2   ar
    13     2     3   ar
    14     3     4   ar
    15     4     5   ar
    16     5     6   ar
    17     5     7    1
    18     7    28    1
    19    28    29    1
    20    29    30   ar
    21    30    31   ar
    22    31    32   ar
    23    32    33   ar
    24    33    34   ar
    25     7     8    1
    26     8    24    1
    27    24    25    1
    28    25    26    1
    29    26    27    1
    30     8     9    1
    31     9    10    1
    32    13    14    1
    33    23    21    1
    34    14    11    1
    35     6     1   ar
    36    34    29   ar
    37    27    24    1
    38    10     4    1
    39    15    16    1
@<TRIPOS>MOLECULE
*****
 34 39 0 0 0
SMALL
GASTEIGER

@<TRIPOS>ATOM
      1 C         139.0934  140.5521  164.3123 C.ar    1  UNL1        0.0478
      2 C         137.7984  140.5776  163.5558 C.ar    1  UNL1        0.0176
      3 C         137.7974  140.8424  162.0794 C.ar    1  UNL1        0.0378
      4 C         139.0914  141.0818  161.3595 C.ar    1  UNL1        0.1347
      5 C         140.3864  141.0563  162.1160 C.ar    1  UNL1        0.0144
      6 C         140.3874  140.7915  163.5924 C.ar    1  UNL1        0.0133
      7 C         141.6804  141.2957  161.3961 C.3     1  UNL1        0.0480
      8 C         141.6794  141.5605  159.9197 C.3     1  UNL1        0.1060
      9 C         140.3844  141.5860  159.1631 C.3     1  UNL1        0.2215
     10 O         139.0904  141.3466  159.8830 O.3     1  UNL1       -0.4743
     11 C         139.0958  139.9127  167.8768 C.3     1  UNL1        0.1145
     12 C         138.4368  139.2814  166.6863 C.3     1  UNL1        0.1099
     13 N         139.0944  140.2873  165.7888 N.pl3   1  UNL1       -0.3045
     14 C         139.7534  140.9187  166.9792 C.3     1  UNL1        0.1099
     15 N         139.0968  139.6479  169.3532 N.3     1  UNL1       -0.1813
     16 H         138.1598  139.8661  169.6921 H       1  UNL1        0.1485
     17 O         139.0269  141.4319  170.4989 O.2     1  UNL1       -0.1575
     18 S         140.0598  140.3743  170.2448 S.O2    1  UNL1        0.0408
     19 O         141.0928  139.3167  169.9907 O.2     1  UNL1       -0.1575
     20 C         141.0228  141.1006  171.1364 C.3     1  UNL1        0.1688
     21 C         142.1806  141.8456  170.5409 C.3     1  UNL1        0.0253
     22 C         142.8937  143.1374  170.2711 C.3     1  UNL1        0.0019
     23 C         143.4728  141.8441  169.7792 C.3     1  UNL1        0.0019
     24 N         142.9734  141.7999  159.1998 N.3     1  UNL1       -0.2704
     25 C         143.7701  143.0146  158.8255 C.3     1  UNL1        0.0736
     26 C         144.8034  142.1385  158.1817 C.3     1  UNL1        0.0346
     27 C         144.0068  140.9239  158.5559 C.3     1  UNL1        0.0736
     28 C         142.9754  141.2703  162.1526 C.3     1  UNL1        0.0323
     29 C         143.3596  142.4314  163.0211 C.ar    1  UNL1       -0.0218
     30 C         143.2360  143.8321  162.4985 C.ar    1  UNL1       -0.0043
     31 C         143.6202  144.9932  163.3670 C.ar    1  UNL1       -0.0003
     32 C         144.1279  144.7537  164.7580 C.ar    1  UNL1       -0.0000
     33 C         144.2515  143.3531  165.2805 C.ar    1  UNL1       -0.0003
     34 C         143.8673  142.1920  164.4120 C.ar    1  UNL1       -0.0043
@<TRIPOS>BOND
     1    17    18    2
     2    18    19    2
     3    18    20    1
     4    20    21    1
     5    21    22    1
     6    22    23    1
     7    18    15    1
     8    15    11    1
     9    11    12    1
    10    12    13    1
    11    13     1    1
    12     1     2   ar
    13     2     3   ar
    14     3     4   ar
    15     4     5   ar
    16     5     6   ar
    17     5     7    1
    18     7    28    1
    19    28    29    1
    20    29    30   ar
    21    30    31   ar
    22    31    32   ar
    23    32    33   ar
    24    33    34   ar
    25     7     8    1
    26     8    24    1
    27    24    25    1
    28    25    26    1
    29    26    27    1
    30     8     9    1
    31     9    10    1
    32    13    14    1
    33    23    21    1
    34    14    11    1
    35     6     1   ar
    36    34    29   ar
    37    27    24    1
    38    10     4    1
    39    15    16    1
@<TRIPOS>MOLECULE
*****
 34 39 0 0 0
SMALL
GASTEIGER

@<TRIPOS>ATOM
      1 C         139.2843  139.2071  164.4730 C.ar    1  UNL1        0.0478
      2 C         138.8111  137.9107  163.8854 C.ar    1  UNL1        0.0176
      3 C         138.8741  137.6919  162.4028 C.ar    1  UNL1        0.0378
      4 C         139.4104  138.7696  161.5078 C.ar    1  UNL1        0.1347
      5 C         139.8835  140.0660  162.0954 C.ar    1  UNL1        0.0144
      6 C         139.8205  140.2848  163.5780 C.ar    1  UNL1        0.0133
      7 C         140.4198  141.1437  161.2004 C.3     1  UNL1        0.0480
      8 C         140.4828  140.9250  159.7178 C.3     1  UNL1        0.1060
      9 C         140.0096  139.6285  159.1301 C.3     1  UNL1        0.2215
     10 O         139.4734  138.5508  160.0251 O.3     1  UNL1       -0.4743
     11 C         139.1321  139.7353  168.0524 C.3     1  UNL1        0.1145
     12 C         138.3041  138.9798  167.0556 C.3     1  UNL1        0.1099
     13 N         139.2213  139.4259  165.9557 N.pl3   1  UNL1       -0.3045
     14 C         140.0493  140.1814  166.9525 C.3     1  UNL1        0.1099
     15 N         139.0691  139.9540  169.5350 N.3     1  UNL1       -0.1813
     16 H         138.2357  140.5140  169.7148 H       1  UNL1        0.1485
     17 O         141.0078  139.3649  170.1631 O.2     1  UNL1       -0.1575
     18 S         140.2060  140.6302  170.2424 S.O2    1  UNL1        0.0408
     19 O         139.4043  141.8954  170.3217 O.2     1  UNL1       -0.1575
     20 C         141.3429  141.3062  170.9498 C.3     1  UNL1        0.1688
     21 C         142.4873  141.8707  170.1613 C.3     1  UNL1        0.0253
     22 C         143.1062  142.2246  168.8416 C.3     1  UNL1        0.0019
     23 C         143.8508  142.4945  170.1155 C.3     1  UNL1        0.0019
     24 N         141.0190  142.0026  158.8227 N.3     1  UNL1       -0.2704
     25 C         140.4086  143.0860  157.9838 C.3     1  UNL1        0.0736
     26 C         141.7773  143.5267  157.5570 C.3     1  UNL1        0.0346
     27 C         142.3878  142.4434  158.3958 C.3     1  UNL1        0.0736
     28 C         140.8930  142.4401  161.7879 C.3     1  UNL1        0.0323
     29 C         140.0298  143.1792  162.7672 C.ar    1  UNL1       -0.0218
     30 C         140.5885  143.5925  164.0965 C.ar    1  UNL1       -0.0043
     31 C         139.7254  144.3315  165.0757 C.ar    1  UNL1       -0.0003
     32 C         138.3036  144.6572  164.7257 C.ar    1  UNL1       -0.0000
     33 C         137.7449  144.2438  163.3964 C.ar    1  UNL1       -0.0003
     34 C         138.6081  143.5048  162.4171 C.ar    1  UNL1       -0.0043
@<TRIPOS>BOND
     1    17    18    2
     2    18    19    2
     3    18    20    1
     4    20    21    1
     5    21    22    1
     6    22    23    1
     7    18    15    1
     8    15    11    1
     9    11    12    1
    10    12    13    1
    11    13     1    1
    12     1     2   ar
    13     2     3   ar
    14     3     4   ar
    15     4     5   ar
    16     5     6   ar
    17     5     7    1
    18     7    28    1
    19    28    29    1
    20    29    30   ar
    21    30    31   ar
    22    31    32   ar
    23    32    33   ar
    24    33    34   ar
    25     7     8    1
    26     8    24    1
    27    24    25    1
    28    25    26    1
    29    26    27    1
    30     8     9    1
    31     9    10    1
    32    13    14    1
    33    23    21    1
    34    14    11    1
    35     6     1   ar
    36    34    29   ar
    37    27    24    1
    38    10     4    1
    39    15    16    1
@<TRIPOS>MOLECULE
*****
 34 39 0 0 0
SMALL
GASTEIGER

@<TRIPOS>ATOM
      1 C         141.3128  139.1649  162.1139 C.ar    1  UNL1        0.0478
      2 C         142.6906  138.5899  162.2588 C.ar    1  UNL1        0.0176
      3 C         143.3565  138.5677  163.6027 C.ar    1  UNL1        0.0378
      4 C         142.6446  139.1205  164.8017 C.ar    1  UNL1        0.1347
      5 C         141.2668  139.6955  164.6568 C.ar    1  UNL1        0.0144
      6 C         140.6009  139.7177  163.3130 C.ar    1  UNL1        0.0133
      7 C         140.5550  140.2483  165.8558 C.3     1  UNL1        0.0480
      8 C         141.2209  140.2262  167.1997 C.3     1  UNL1        0.1060
      9 C         142.5988  139.6512  167.3446 C.3     1  UNL1        0.2215
     10 O         143.3106  139.0983  166.1456 O.3     1  UNL1       -0.4743
     11 C         139.7049  139.2184  158.8695 C.3     1  UNL1        0.1145
     12 C         139.4636  138.4947  160.1611 C.3     1  UNL1        0.1099
     13 N         140.6468  139.1870  160.7700 N.pl3   1  UNL1       -0.3045
     14 C         140.8881  139.9107  159.4785 C.3     1  UNL1        0.1099
     15 N         139.0389  139.2405  157.5257 N.3     1  UNL1       -0.1813
     16 H         139.7798  139.1665  156.8286 H       1  UNL1        0.1485
     17 O         137.3509  140.2176  158.3602 O.2     1  UNL1       -0.1575
     18 S         138.1872  140.4102  157.1299 S.O2    1  UNL1        0.0408
     19 O         139.0235  140.6028  155.8996 O.2     1  UNL1       -0.1575
     20 C         137.3356  141.5798  156.7341 C.3     1  UNL1        0.1688
     21 C         136.0755  141.3591  155.9509 C.3     1  UNL1        0.0253
     22 C         135.2393  141.6231  154.7339 C.3     1  UNL1        0.0019
     23 C         134.7290  140.7129  155.8114 C.3     1  UNL1        0.0019
     24 N         140.5090  140.7790  168.3987 N.3     1  UNL1       -0.2704
     25 C         139.5401  140.2299  169.4036 C.3     1  UNL1        0.0736
     26 C         139.5023  141.5608  170.0943 C.3     1  UNL1        0.0346
     27 C         140.4712  142.1099  169.0896 C.3     1  UNL1        0.0736
     28 C         139.1772  140.8233  165.7110 C.3     1  UNL1        0.0323
     29 C         138.9851  142.1499  165.0376 C.ar    1  UNL1       -0.0218
     30 C         137.9106  142.3180  164.0046 C.ar    1  UNL1       -0.0043
     31 C         137.7184  143.6445  163.3312 C.ar    1  UNL1       -0.0003
     32 C         138.6008  144.8030  163.6910 C.ar    1  UNL1       -0.0000
     33 C         139.6753  144.6350  164.7240 C.ar    1  UNL1       -0.0003
     34 C         139.8674  143.3084  165.3974 C.ar    1  UNL1       -0.0043
@<TRIPOS>BOND
     1    17    18    2
     2    18    19    2
     3    18    20    1
     4    20    21    1
     5    21    22    1
     6    22    23    1
     7    18    15    1
     8    15    11    1
     9    11    12    1
    10    12    13    1
    11    13     1    1
    12     1     2   ar
    13     2     3   ar
    14     3     4   ar
    15     4     5   ar
    16     5     6   ar
    17     5     7    1
    18     7    28    1
    19    28    29    1
    20    29    30   ar
    21    30    31   ar
    22    31    32   ar
    23    32    33   ar
    24    33    34   ar
    25     7     8    1
    26     8    24    1
    27    24    25    1
    28    25    26    1
    29    26    27    1
    30     8     9    1
    31     9    10    1
    32    13    14    1
    33    23    21    1
    34    14    11    1
    35     6     1   ar
    36    34    29   ar
    37    27    24    1
    38    10     4    1
    39    15    16    1
