@<TRIPOS>MOLECULE
*****
 32 36 0 0 0
SMALL
GASTEIGER

@<TRIPOS>ATOM
      1 O         143.6631  142.5817  167.6802 O.2     1  UNL1       -0.2258
      2 C         142.6818  142.7565  166.5592 C.2     1  UNL1        0.4087
      3 O         142.9808  143.3342  165.2076 O.3     1  UNL1       -0.4398
      4 C         141.7130  143.3190  164.4061 C.3     1  UNL1        0.1561
      5 C         142.8923  143.8847  163.6717 C.3     1  UNL1        0.0425
      6 C         142.7347  144.3711  162.2616 C.3     1  UNL1        0.0160
      7 C         141.3979  144.2919  161.5858 C.3     1  UNL1        0.1122
      8 C         140.2186  143.7263  162.3202 C.3     1  UNL1        0.0160
      9 C         140.3762  143.2398  163.7303 C.3     1  UNL1        0.0425
     10 C         140.6303  142.7318  165.2624 C.3     1  UNL1        0.1416
     11 N         141.2290  142.3842  166.5931 N.am    1  UNL1       -0.2178
     12 C         141.2404  144.7784  160.1757 C.2     1  UNL1        0.3506
     13 N         140.0882  145.5769  159.6420 N.2     1  UNL1       -0.0350
     14 C         140.3432  145.8438  158.1881 C.2     1  UNL1        0.2348
     15 C         139.5519  146.5819  157.1493 C.2     1  UNL1        0.0869
     16 C         140.0704  146.6864  155.7456 C.2     1  UNL1        0.1468
     17 C         141.3802  146.0529  155.3808 C.2     1  UNL1        0.0200
     18 C         142.1714  145.3148  156.4196 C.3     1  UNL1        0.1068
     19 C         141.6530  145.2103  157.8232 C.2     1  UNL1        0.2176
     20 N         142.2074  144.5518  159.0516 N.2     1  UNL1       -0.0389
     21 O         139.2792  147.4245  154.7068 O.2     1  UNL1       -0.4047
     22 C         139.4615  148.9036  154.5358 C.3     1  UNL1        0.5753
     23 F         139.6439  150.3826  154.3649 F       1  UNL1       -0.1328
     24 F         140.5948  148.6540  153.5854 F       1  UNL1       -0.1328
     25 F         138.3282  149.1532  155.4863 F       1  UNL1       -0.1328
     26 C         140.5027  141.7718  167.7537 C.ar    1  UNL1        0.1029
     27 C         140.3540  142.5384  169.0344 C.ar    1  UNL1        0.0205
     28 C         139.6276  141.9259  170.1951 C.ar    1  UNL1        0.0221
     29 C         139.0498  140.5469  170.0752 C.ar    1  UNL1        0.1014
     30 N         139.1984  139.7802  168.7944 N.ar    1  UNL1       -0.2154
     31 C         139.9249  140.3927  167.6337 C.ar    1  UNL1        0.2361
     32 F         140.0735  139.6261  166.3530 F       1  UNL1       -0.1818
@<TRIPOS>BOND
     1     1     2    2
     2     2     3    1
     3     3     4    1
     4     4     5    1
     5     5     6    1
     6     6     7    1
     7     7    12    1
     8    12    13    2
     9    13    14    1
    10    14    15    2
    11    15    16    1
    12    16    21    1
    13    21    22    1
    14    22    23    1
    15    22    24    1
    16    22    25    1
    17    16    17    2
    18    17    18    1
    19    18    19    1
    20    19    20    2
    21     7     8    1
    22     8     9    1
    23     4    10    1
    24    10    11    1
    25    11    26    1
    26    26    27   ar
    27    27    28   ar
    28    28    29   ar
    29    29    30   ar
    30    30    31   ar
    31    31    32    1
    32    11     2   am
    33    31    26   ar
    34     9     4    1
    35    20    12    1
    36    19    14    1
@<TRIPOS>MOLECULE
*****
 32 36 0 0 0
SMALL
GASTEIGER

@<TRIPOS>ATOM
      1 O         138.4177  143.5788  155.4782 O.2     1  UNL1       -0.2258
      2 C         139.1153  144.1008  156.6992 C.2     1  UNL1        0.4087
      3 O         139.2409  143.3903  158.0143 O.3     1  UNL1       -0.4398
      4 C         140.0130  144.2753  158.9474 C.3     1  UNL1        0.1561
      5 C         139.5905  142.9702  159.5541 C.3     1  UNL1        0.0425
      6 C         139.9482  142.6534  160.9760 C.3     1  UNL1        0.0160
      7 C         140.7285  143.6417  161.7911 C.3     1  UNL1        0.1122
      8 C         141.1511  144.9468  161.1844 C.3     1  UNL1        0.0160
      9 C         140.7933  145.2636  159.7626 C.3     1  UNL1        0.0425
     10 C         140.3646  145.5328  158.2090 C.3     1  UNL1        0.1416
     11 N         139.8098  145.4249  156.8195 N.am    1  UNL1       -0.2178
     12 C         141.0862  143.3249  163.2130 C.2     1  UNL1        0.3506
     13 N         140.1202  143.1493  164.3470 N.2     1  UNL1       -0.0350
     14 C         140.9097  142.8439  165.5853 C.2     1  UNL1        0.2348
     15 C         140.4926  142.5761  167.0011 C.2     1  UNL1        0.0869
     16 C         141.5294  142.2951  168.0481 C.2     1  UNL1        0.1468
     17 C         142.9833  142.2819  167.6793 C.2     1  UNL1        0.0200
     18 C         143.4004  142.5497  166.2636 C.3     1  UNL1        0.1068
     19 C         142.3637  142.8307  165.2166 C.2     1  UNL1        0.2176
     20 N         142.4727  143.1279  163.7504 N.2     1  UNL1       -0.0389
     21 O         141.1122  142.0273  169.4638 O.2     1  UNL1       -0.4047
     22 C         140.2306  143.0045  170.1835 C.3     1  UNL1        0.5753
     23 F         139.3490  143.9817  170.9031 F       1  UNL1       -0.1328
     24 F         141.2965  144.0532  170.0654 F       1  UNL1       -0.1328
     25 F         139.1646  141.9558  170.3016 F       1  UNL1       -0.1328
     26 C         139.9286  146.4595  155.7400 C.ar    1  UNL1        0.1029
     27 C         140.6862  146.1485  154.4833 C.ar    1  UNL1        0.0205
     28 C         140.8050  147.1832  153.4037 C.ar    1  UNL1        0.0221
     29 C         140.1663  148.5287  153.5809 C.ar    1  UNL1        0.1014
     30 N         139.4086  148.8397  154.8376 N.ar    1  UNL1       -0.2154
     31 C         139.2899  147.8051  155.9171 C.ar    1  UNL1        0.2361
     32 F         138.5322  148.1161  157.1739 F       1  UNL1       -0.1818
@<TRIPOS>BOND
     1     1     2    2
     2     2     3    1
     3     3     4    1
     4     4     5    1
     5     5     6    1
     6     6     7    1
     7     7    12    1
     8    12    13    2
     9    13    14    1
    10    14    15    2
    11    15    16    1
    12    16    21    1
    13    21    22    1
    14    22    23    1
    15    22    24    1
    16    22    25    1
    17    16    17    2
    18    17    18    1
    19    18    19    1
    20    19    20    2
    21     7     8    1
    22     8     9    1
    23     4    10    1
    24    10    11    1
    25    11    26    1
    26    26    27   ar
    27    27    28   ar
    28    28    29   ar
    29    29    30   ar
    30    30    31   ar
    31    31    32    1
    32    11     2   am
    33    31    26   ar
    34     9     4    1
    35    20    12    1
    36    19    14    1
@<TRIPOS>MOLECULE
*****
 32 36 0 0 0
SMALL
GASTEIGER

@<TRIPOS>ATOM
      1 O         142.9767  138.9965  169.1866 O.2     1  UNL1       -0.2258
      2 C         142.5617  139.5290  167.8472 C.2     1  UNL1        0.4087
      3 O         143.0055  139.0046  166.5137 O.3     1  UNL1       -0.4398
      4 C         142.3481  139.8310  165.4484 C.3     1  UNL1        0.1561
      5 C         143.2369  138.7458  164.9171 C.3     1  UNL1        0.0425
      6 C         143.4008  138.5682  163.4367 C.3     1  UNL1        0.0160
      7 C         142.6759  139.4758  162.4876 C.3     1  UNL1        0.1122
      8 C         141.7871  140.5610  163.0189 C.3     1  UNL1        0.0160
      9 C         141.6231  140.7386  164.4993 C.3     1  UNL1        0.0425
     10 C         141.4979  140.8662  166.1235 C.3     1  UNL1        0.1416
     11 N         141.6299  140.6796  167.6059 N.am    1  UNL1       -0.2178
     12 C         142.8398  139.2981  161.0072 C.2     1  UNL1        0.3506
     13 N         142.4636  138.0790  160.2184 N.2     1  UNL1       -0.0350
     14 C         142.8001  138.3359  158.7794 C.2     1  UNL1        0.2348
     15 C         142.6499  137.4931  157.5477 C.2     1  UNL1        0.0869
     16 C         143.0841  138.0283  156.2153 C.2     1  UNL1        0.1468
     17 C         143.6682  139.4062  156.1147 C.2     1  UNL1        0.0200
     18 C         143.8184  140.2489  157.3464 C.3     1  UNL1        0.1068
     19 C         143.3843  139.7138  158.6788 C.2     1  UNL1        0.2176
     20 N         143.4089  140.3085  160.0556 N.2     1  UNL1       -0.0389
     21 O         142.9340  137.1855  154.9835 O.2     1  UNL1       -0.4047
     22 C         143.1512  135.7032  155.0579 C.3     1  UNL1        0.5753
     23 F         143.3685  134.2209  155.1323 F       1  UNL1       -0.1328
     24 F         144.6106  135.9303  155.3197 F       1  UNL1       -0.1328
     25 F         141.6918  135.4761  154.7961 F       1  UNL1       -0.1328
     26 C         140.9497  141.4995  168.6617 C.ar    1  UNL1        0.1029
     27 C         141.4029  142.9043  168.9283 C.ar    1  UNL1        0.0205
     28 C         140.7226  143.7243  169.9842 C.ar    1  UNL1        0.0221
     29 C         139.5891  143.1395  170.7735 C.ar    1  UNL1        0.1014
     30 N         139.1358  141.7346  170.5070 N.ar    1  UNL1       -0.2154
     31 C         139.8162  140.9147  169.4511 C.ar    1  UNL1        0.2361
     32 F         139.3629  139.5098  169.1846 F       1  UNL1       -0.1818
@<TRIPOS>BOND
     1     1     2    2
     2     2     3    1
     3     3     4    1
     4     4     5    1
     5     5     6    1
     6     6     7    1
     7     7    12    1
     8    12    13    2
     9    13    14    1
    10    14    15    2
    11    15    16    1
    12    16    21    1
    13    21    22    1
    14    22    23    1
    15    22    24    1
    16    22    25    1
    17    16    17    2
    18    17    18    1
    19    18    19    1
    20    19    20    2
    21     7     8    1
    22     8     9    1
    23     4    10    1
    24    10    11    1
    25    11    26    1
    26    26    27   ar
    27    27    28   ar
    28    28    29   ar
    29    29    30   ar
    30    30    31   ar
    31    31    32    1
    32    11     2   am
    33    31    26   ar
    34     9     4    1
    35    20    12    1
    36    19    14    1
@<TRIPOS>MOLECULE
*****
 32 36 0 0 0
SMALL
GASTEIGER

@<TRIPOS>ATOM
      1 O         137.8790  138.7501  167.8721 O.2     1  UNL1       -0.2258
      2 C         138.5999  139.5479  166.8263 C.2     1  UNL1        0.4087
      3 O         138.1207  139.8062  165.4284 O.3     1  UNL1       -0.4398
      4 C         139.1512  140.6455  164.7328 C.3     1  UNL1        0.1561
      5 C         137.9660  140.3030  163.8796 C.3     1  UNL1        0.0425
      6 C         137.8933  140.7953  162.4646 C.3     1  UNL1        0.0160
      7 C         139.0057  141.6302  161.9028 C.3     1  UNL1        0.1122
      8 C         140.1909  141.9726  162.7561 C.3     1  UNL1        0.0160
      9 C         140.2636  141.4803  164.1711 C.3     1  UNL1        0.0425
     10 C         140.2671  140.9060  165.7008 C.3     1  UNL1        0.1416
     11 N         139.9264  140.2277  166.9945 N.am    1  UNL1       -0.2178
     12 C         138.9330  142.1225  160.4877 C.2     1  UNL1        0.3506
     13 N         139.6565  143.3121  159.9298 N.2     1  UNL1       -0.0350
     14 C         139.2946  143.4365  158.4795 C.2     1  UNL1        0.2348
     15 C         139.7051  144.4192  157.4232 C.2     1  UNL1        0.0869
     16 C         139.1685  144.2892  156.0285 C.2     1  UNL1        0.1468
     17 C         138.2213  143.1764  155.6901 C.2     1  UNL1        0.0200
     18 C         137.8107  142.1937  156.7463 C.3     1  UNL1        0.1068
     19 C         138.3473  142.3237  158.1410 C.2     1  UNL1        0.2176
     20 N         138.1239  141.5116  159.3822 N.2     1  UNL1       -0.0389
     21 O         139.5790  145.2719  154.9723 O.2     1  UNL1       -0.4047
     22 C         139.1350  146.7017  155.0649 C.3     1  UNL1        0.5753
     23 F         138.6910  148.1315  155.1575 F       1  UNL1       -0.1328
     24 F         140.5594  147.1318  155.2542 F       1  UNL1       -0.1328
     25 F         137.7105  146.2717  154.8756 F       1  UNL1       -0.1328
     26 C         140.7649  140.2289  168.2382 C.ar    1  UNL1        0.1029
     27 C         140.2446  140.8652  169.4929 C.ar    1  UNL1        0.0205
     28 C         141.0832  140.8664  170.7367 C.ar    1  UNL1        0.0221
     29 C         142.4421  140.2314  170.7256 C.ar    1  UNL1        0.1014
     30 N         142.9625  139.5950  169.4708 N.ar    1  UNL1       -0.2154
     31 C         142.1238  139.5939  168.2272 C.ar    1  UNL1        0.2361
     32 F         142.6442  138.9576  166.9724 F       1  UNL1       -0.1818
@<TRIPOS>BOND
     1     1     2    2
     2     2     3    1
     3     3     4    1
     4     4     5    1
     5     5     6    1
     6     6     7    1
     7     7    12    1
     8    12    13    2
     9    13    14    1
    10    14    15    2
    11    15    16    1
    12    16    21    1
    13    21    22    1
    14    22    23    1
    15    22    24    1
    16    22    25    1
    17    16    17    2
    18    17    18    1
    19    18    19    1
    20    19    20    2
    21     7     8    1
    22     8     9    1
    23     4    10    1
    24    10    11    1
    25    11    26    1
    26    26    27   ar
    27    27    28   ar
    28    28    29   ar
    29    29    30   ar
    30    30    31   ar
    31    31    32    1
    32    11     2   am
    33    31    26   ar
    34     9     4    1
    35    20    12    1
    36    19    14    1
@<TRIPOS>MOLECULE
*****
 32 36 0 0 0
SMALL
GASTEIGER

@<TRIPOS>ATOM
      1 O         138.0624  139.1593  168.6064 O.2     1  UNL1       -0.2258
      2 C         138.9214  139.4987  167.4245 C.2     1  UNL1        0.4087
      3 O         138.7666  138.9523  166.0361 O.3     1  UNL1       -0.4398
      4 C         139.8356  139.5599  165.1769 C.3     1  UNL1        0.1561
      5 C         138.9348  138.6076  164.4478 C.3     1  UNL1        0.0425
      6 C         139.1504  138.3403  162.9877 C.3     1  UNL1        0.0160
      7 C         140.2669  139.0253  162.2567 C.3     1  UNL1        0.1122
      8 C         141.1676  139.9776  162.9858 C.3     1  UNL1        0.0160
      9 C         140.9520  140.2449  164.4459 C.3     1  UNL1        0.0425
     10 C         140.6510  140.4819  166.0344 C.3     1  UNL1        0.1416
     11 N         140.0861  140.4440  167.4234 N.am    1  UNL1       -0.2178
     12 C         140.4825  138.7580  160.7965 C.2     1  UNL1        0.3506
     13 N         141.7255  138.1899  160.1783 N.2     1  UNL1       -0.0350
     14 C         141.5042  138.0926  158.6979 C.2     1  UNL1        0.2348
     15 C         142.3808  137.6071  157.5818 C.2     1  UNL1        0.0869
     16 C         141.8775  137.6296  156.1688 C.2     1  UNL1        0.1468
     17 C         140.4977  138.1375  155.8721 C.2     1  UNL1        0.0200
     18 C         139.6211  138.6230  156.9883 C.3     1  UNL1        0.1068
     19 C         140.1243  138.6006  158.4012 C.2     1  UNL1        0.2176
     20 N         139.4929  139.0118  159.6982 N.2     1  UNL1       -0.0389
     21 O         142.7541  137.1441  155.0527 O.2     1  UNL1       -0.4047
     22 C         143.4824  135.8393  155.1843 C.3     1  UNL1        0.5753
     23 F         144.2106  134.5346  155.3159 F       1  UNL1       -0.1328
     24 F         142.1897  135.0998  155.0057 F       1  UNL1       -0.1328
     25 F         144.7752  136.5788  155.3628 F       1  UNL1       -0.1328
     26 C         140.5961  141.2159  168.6040 C.ar    1  UNL1        0.1029
     27 C         140.4608  142.7094  168.6389 C.ar    1  UNL1        0.0205
     28 C         140.9710  143.4813  169.8195 C.ar    1  UNL1        0.0221
     29 C         141.6164  142.7597  170.9653 C.ar    1  UNL1        0.1014
     30 N         141.7517  141.2662  170.9304 N.ar    1  UNL1       -0.2154
     31 C         141.2416  140.4944  169.7497 C.ar    1  UNL1        0.2361
     32 F         141.3769  139.0008  169.7149 F       1  UNL1       -0.1818
@<TRIPOS>BOND
     1     1     2    2
     2     2     3    1
     3     3     4    1
     4     4     5    1
     5     5     6    1
     6     6     7    1
     7     7    12    1
     8    12    13    2
     9    13    14    1
    10    14    15    2
    11    15    16    1
    12    16    21    1
    13    21    22    1
    14    22    23    1
    15    22    24    1
    16    22    25    1
    17    16    17    2
    18    17    18    1
    19    18    19    1
    20    19    20    2
    21     7     8    1
    22     8     9    1
    23     4    10    1
    24    10    11    1
    25    11    26    1
    26    26    27   ar
    27    27    28   ar
    28    28    29   ar
    29    29    30   ar
    30    30    31   ar
    31    31    32    1
    32    11     2   am
    33    31    26   ar
    34     9     4    1
    35    20    12    1
    36    19    14    1
@<TRIPOS>MOLECULE
*****
 32 36 0 0 0
SMALL
GASTEIGER

@<TRIPOS>ATOM
      1 O         142.9127  139.0844  168.9786 O.2     1  UNL1       -0.2258
      2 C         142.2731  139.4983  167.6865 C.2     1  UNL1        0.4087
      3 O         142.5409  138.8980  166.3381 O.3     1  UNL1       -0.4398
      4 C         141.6866  139.6138  165.3341 C.3     1  UNL1        0.1561
      5 C         142.5448  138.5336  164.7453 C.3     1  UNL1        0.0425
      6 C         142.4950  138.2556  163.2722 C.3     1  UNL1        0.0160
      7 C         141.5870  139.0577  162.3878 C.3     1  UNL1        0.1122
      8 C         140.7288  140.1379  162.9766 C.3     1  UNL1        0.0160
      9 C         140.7786  140.4159  164.4497 C.3     1  UNL1        0.0425
     10 C         140.8909  140.6564  166.0620 C.3     1  UNL1        0.1416
     11 N         141.2533  140.5850  167.5158 N.am    1  UNL1       -0.2178
     12 C         141.5373  138.7797  160.9146 C.2     1  UNL1        0.3506
     13 N         140.3688  139.0322  160.0087 N.2     1  UNL1       -0.0350
     14 C         140.7566  138.6088  158.6229 C.2     1  UNL1        0.2348
     15 C         140.0094  138.6251  157.3223 C.2     1  UNL1        0.0869
     16 C         140.6706  138.1272  156.0713 C.2     1  UNL1        0.1468
     17 C         142.0788  137.6131  156.1208 C.2     1  UNL1        0.0200
     18 C         142.8260  137.5968  157.4214 C.3     1  UNL1        0.1068
     19 C         142.1649  138.0947  158.6724 C.2     1  UNL1        0.2176
     20 N         142.6474  138.2003  160.0887 N.2     1  UNL1       -0.0389
     21 O         139.9234  138.1435  154.7707 O.2     1  UNL1       -0.4047
     22 C         138.4555  137.8354  154.7452 C.3     1  UNL1        0.5753
     23 F         136.9877  137.5274  154.7197 F       1  UNL1       -0.1328
     24 F         138.7212  136.5149  155.4051 F       1  UNL1       -0.1328
     25 F         138.1898  139.1560  154.0853 F       1  UNL1       -0.1328
     26 C         140.6942  141.4487  168.6072 C.ar    1  UNL1        0.1029
     27 C         141.2042  142.8471  168.7926 C.ar    1  UNL1        0.0205
     28 C         140.6451  143.7108  169.8842 C.ar    1  UNL1        0.0221
     29 C         139.5759  143.1762  170.7903 C.ar    1  UNL1        0.1014
     30 N         139.0659  141.7777  170.6049 N.ar    1  UNL1       -0.2154
     31 C         139.6251  140.9141  169.5133 C.ar    1  UNL1        0.2361
     32 F         139.1150  139.5156  169.3280 F       1  UNL1       -0.1818
@<TRIPOS>BOND
     1     1     2    2
     2     2     3    1
     3     3     4    1
     4     4     5    1
     5     5     6    1
     6     6     7    1
     7     7    12    1
     8    12    13    2
     9    13    14    1
    10    14    15    2
    11    15    16    1
    12    16    21    1
    13    21    22    1
    14    22    23    1
    15    22    24    1
    16    22    25    1
    17    16    17    2
    18    17    18    1
    19    18    19    1
    20    19    20    2
    21     7     8    1
    22     8     9    1
    23     4    10    1
    24    10    11    1
    25    11    26    1
    26    26    27   ar
    27    27    28   ar
    28    28    29   ar
    29    29    30   ar
    30    30    31   ar
    31    31    32    1
    32    11     2   am
    33    31    26   ar
    34     9     4    1
    35    20    12    1
    36    19    14    1
@<TRIPOS>MOLECULE
*****
 32 36 0 0 0
SMALL
GASTEIGER

@<TRIPOS>ATOM
      1 O         144.3613  142.7693  168.6510 O.2     1  UNL1       -0.2258
      2 C         143.4771  142.6823  167.4425 C.2     1  UNL1        0.4087
      3 O         143.8123  143.1785  166.0671 O.3     1  UNL1       -0.4398
      4 C         142.6448  142.8867  165.1716 C.3     1  UNL1        0.1561
      5 C         143.7883  143.5685  164.4806 C.3     1  UNL1        0.0425
      6 C         143.6941  143.8957  163.0198 C.3     1  UNL1        0.0160
      7 C         142.4564  143.5411  162.2500 C.3     1  UNL1        0.1122
      8 C         141.3130  142.8593  162.9411 C.3     1  UNL1        0.0160
      9 C         141.4071  142.5321  164.4019 C.3     1  UNL1        0.0425
     10 C         141.5879  142.2103  165.9936 C.3     1  UNL1        0.1416
     11 N         142.1023  142.0840  167.3970 N.am    1  UNL1       -0.2178
     12 C         142.3623  143.8684  160.7891 C.2     1  UNL1        0.3506
     13 N         141.6628  145.0546  160.1946 N.2     1  UNL1       -0.0350
     14 C         141.8194  144.9862  158.7044 C.2     1  UNL1        0.2348
     15 C         141.3397  145.8838  157.6025 C.2     1  UNL1        0.0869
     16 C         141.6564  145.5529  156.1741 C.2     1  UNL1        0.1468
     17 C         142.4526  144.3243  155.8476 C.2     1  UNL1        0.0200
     18 C         142.9322  143.4267  156.9495 C.3     1  UNL1        0.1068
     19 C         142.6156  143.7576  158.3778 C.2     1  UNL1        0.2176
     20 N         142.9512  143.0668  159.6663 N.2     1  UNL1       -0.0389
     21 O         141.1767  146.4505  155.0722 O.2     1  UNL1       -0.4047
     22 C         139.7207  146.7949  154.9655 C.3     1  UNL1        0.5753
     23 F         138.2647  147.1393  154.8589 F       1  UNL1       -0.1328
     24 F         140.0725  148.2491  154.8581 F       1  UNL1       -0.1328
     25 F         139.3688  145.3408  155.0730 F       1  UNL1       -0.1328
     26 C         141.3704  141.4676  168.5521 C.ar    1  UNL1        0.1029
     27 C         141.6650  140.0540  168.9584 C.ar    1  UNL1        0.0205
     28 C         140.9331  139.4376  170.1135 C.ar    1  UNL1        0.0221
     29 C         139.9066  140.2347  170.8624 C.ar    1  UNL1        0.1014
     30 N         139.6119  141.6483  170.4561 N.ar    1  UNL1       -0.2154
     31 C         140.3439  142.2647  169.3010 C.ar    1  UNL1        0.2361
     32 F         140.0492  143.6783  168.8947 F       1  UNL1       -0.1818
@<TRIPOS>BOND
     1     1     2    2
     2     2     3    1
     3     3     4    1
     4     4     5    1
     5     5     6    1
     6     6     7    1
     7     7    12    1
     8    12    13    2
     9    13    14    1
    10    14    15    2
    11    15    16    1
    12    16    21    1
    13    21    22    1
    14    22    23    1
    15    22    24    1
    16    22    25    1
    17    16    17    2
    18    17    18    1
    19    18    19    1
    20    19    20    2
    21     7     8    1
    22     8     9    1
    23     4    10    1
    24    10    11    1
    25    11    26    1
    26    26    27   ar
    27    27    28   ar
    28    28    29   ar
    29    29    30   ar
    30    30    31   ar
    31    31    32    1
    32    11     2   am
    33    31    26   ar
    34     9     4    1
    35    20    12    1
    36    19    14    1
@<TRIPOS>MOLECULE
*****
 32 36 0 0 0
SMALL
GASTEIGER

@<TRIPOS>ATOM
      1 O         137.8248  143.0364  164.7116 O.2     1  UNL1       -0.2258
      2 C         139.1349  142.4881  164.2288 C.2     1  UNL1        0.4087
      3 O         139.6993  142.6409  162.8474 O.3     1  UNL1       -0.4398
      4 C         141.0238  141.9380  162.8075 C.3     1  UNL1        0.1561
      5 C         140.6341  142.5793  161.5087 C.3     1  UNL1        0.0425
      6 C         141.5445  142.4808  160.3207 C.3     1  UNL1        0.0160
      7 C         142.8447  141.7411  160.4315 C.3     1  UNL1        0.1122
      8 C         143.2345  141.0998  161.7302 C.3     1  UNL1        0.0160
      9 C         142.3240  141.1982  162.9182 C.3     1  UNL1        0.0425
     10 C         141.2780  141.3507  164.1642 C.3     1  UNL1        0.1416
     11 N         140.1106  141.6907  165.0426 N.am    1  UNL1       -0.2178
     12 C         143.7552  141.6426  159.2434 C.2     1  UNL1        0.3506
     13 N         144.8831  142.5761  158.9173 N.2     1  UNL1       -0.0350
     14 C         145.5226  142.1038  157.6452 C.2     1  UNL1        0.2348
     15 C         146.6774  142.6312  156.8464 C.2     1  UNL1        0.0869
     16 C         147.0995  141.9333  155.5875 C.2     1  UNL1        0.1468
     17 C         146.3667  140.7079  155.1275 C.2     1  UNL1        0.0200
     18 C         145.2119  140.1805  155.9264 C.3     1  UNL1        0.1068
     19 C         144.7898  140.8784  157.1852 C.2     1  UNL1        0.2176
     20 N         143.6975  140.5934  158.1730 N.2     1  UNL1       -0.0389
     21 O         148.2543  142.4607  154.7886 O.2     1  UNL1       -0.4047
     22 C         149.5577  141.7183  154.7743 C.3     1  UNL1        0.5753
     23 F         150.8610  140.9759  154.7601 F       1  UNL1       -0.1328
     24 F         149.7399  142.0103  156.2343 F       1  UNL1       -0.1328
     25 F         149.3754  141.4262  153.3144 F       1  UNL1       -0.1328
     26 C         139.9475  141.3017  166.4820 C.ar    1  UNL1        0.1029
     27 C         140.4979  142.1828  167.5640 C.ar    1  UNL1        0.0205
     28 C         140.3348  141.7937  169.0035 C.ar    1  UNL1        0.0221
     29 C         139.6214  140.5236  169.3609 C.ar    1  UNL1        0.1014
     30 N         139.0710  139.6424  168.2789 N.ar    1  UNL1       -0.2154
     31 C         139.2341  140.0316  166.8394 C.ar    1  UNL1        0.2361
     32 F         138.6837  139.1505  165.7574 F       1  UNL1       -0.1818
@<TRIPOS>BOND
     1     1     2    2
     2     2     3    1
     3     3     4    1
     4     4     5    1
     5     5     6    1
     6     6     7    1
     7     7    12    1
     8    12    13    2
     9    13    14    1
    10    14    15    2
    11    15    16    1
    12    16    21    1
    13    21    22    1
    14    22    23    1
    15    22    24    1
    16    22    25    1
    17    16    17    2
    18    17    18    1
    19    18    19    1
    20    19    20    2
    21     7     8    1
    22     8     9    1
    23     4    10    1
    24    10    11    1
    25    11    26    1
    26    26    27   ar
    27    27    28   ar
    28    28    29   ar
    29    29    30   ar
    30    30    31   ar
    31    31    32    1
    32    11     2   am
    33    31    26   ar
    34     9     4    1
    35    20    12    1
    36    19    14    1
@<TRIPOS>MOLECULE
*****
 32 36 0 0 0
SMALL
GASTEIGER

@<TRIPOS>ATOM
      1 O         143.2957  138.4759  168.4626 O.2     1  UNL1       -0.2258
      2 C         143.0227  139.3472  167.2726 C.2     1  UNL1        0.4087
      3 O         143.5158  139.1117  165.8756 O.3     1  UNL1       -0.4398
      4 C         143.0065  140.2260  165.0102 C.3     1  UNL1        0.1561
      5 C         143.8385  139.2158  164.2773 C.3     1  UNL1        0.0425
      6 C         144.0925  139.3776  162.8079 C.3     1  UNL1        0.0160
      7 C         143.5145  140.5495  162.0713 C.3     1  UNL1        0.1122
      8 C         142.6825  141.5597  162.8042 C.3     1  UNL1        0.0160
      9 C         142.4285  141.3980  164.2737 C.3     1  UNL1        0.0425
     10 C         142.1986  141.1502  165.8723 C.3     1  UNL1        0.1416
     11 N         142.2086  140.6071  167.2705 N.am    1  UNL1       -0.2178
     12 C         143.7685  140.7112  160.6018 C.2     1  UNL1        0.3506
     13 N         144.5773  141.8001  159.9614 N.2     1  UNL1       -0.0350
     14 C         144.5670  141.5742  158.4786 C.2     1  UNL1        0.2348
     15 C         145.1946  142.3285  157.3440 C.2     1  UNL1        0.0869
     16 C         145.0069  141.8542  155.9333 C.2     1  UNL1        0.1468
     17 C         144.1918  140.6257  155.6573 C.2     1  UNL1        0.0200
     18 C         143.5642  139.8715  156.7919 C.3     1  UNL1        0.1068
     19 C         143.7518  140.3457  158.2025 C.2     1  UNL1        0.2176
     20 N         143.2583  139.8123  159.5147 N.2     1  UNL1       -0.0389
     21 O         145.6345  142.6085  154.7988 O.2     1  UNL1       -0.4047
     22 C         147.1282  142.6886  154.6867 C.3     1  UNL1        0.5753
     23 F         148.6218  142.7687  154.5745 F       1  UNL1       -0.1328
     24 F         147.0378  144.1793  154.5477 F       1  UNL1       -0.1328
     25 F         147.2186  141.1978  154.8256 F       1  UNL1       -0.1328
     26 C         141.5246  141.2168  168.4580 C.ar    1  UNL1        0.1029
     27 C         140.1562  140.7497  168.8570 C.ar    1  UNL1        0.0205
     28 C         139.4722  141.3594  170.0446 C.ar    1  UNL1        0.0221
     29 C         140.1566  142.4362  170.8333 C.ar    1  UNL1        0.1014
     30 N         141.5251  142.9034  170.4343 N.ar    1  UNL1       -0.2154
     31 C         142.2090  142.2937  169.2467 C.ar    1  UNL1        0.2361
     32 F         143.5775  142.7609  168.8477 F       1  UNL1       -0.1818
@<TRIPOS>BOND
     1     1     2    2
     2     2     3    1
     3     3     4    1
     4     4     5    1
     5     5     6    1
     6     6     7    1
     7     7    12    1
     8    12    13    2
     9    13    14    1
    10    14    15    2
    11    15    16    1
    12    16    21    1
    13    21    22    1
    14    22    23    1
    15    22    24    1
    16    22    25    1
    17    16    17    2
    18    17    18    1
    19    18    19    1
    20    19    20    2
    21     7     8    1
    22     8     9    1
    23     4    10    1
    24    10    11    1
    25    11    26    1
    26    26    27   ar
    27    27    28   ar
    28    28    29   ar
    29    29    30   ar
    30    30    31   ar
    31    31    32    1
    32    11     2   am
    33    31    26   ar
    34     9     4    1
    35    20    12    1
    36    19    14    1
