@<TRIPOS>MOLECULE
*****
 34 37 0 0 0
SMALL
GASTEIGER

@<TRIPOS>ATOM
      1 C         140.7676  141.0303  166.6049 C.3     1  UNL1        0.1751
      2 C         140.9414  141.1672  168.0885 C.ar    1  UNL1        0.0089
      3 C         141.9222  141.9431  168.9168 C.ar    1  UNL1       -0.0021
      4 C         141.8503  141.8855  170.4140 C.ar    1  UNL1       -0.0003
      5 C         140.7977  141.0521  171.0828 C.ar    1  UNL1        0.0001
      6 C         139.8170  140.2762  170.2545 C.ar    1  UNL1        0.0043
      7 C         139.8888  140.3338  168.7574 C.ar    1  UNL1        0.0516
      8 C         139.0645  139.6818  167.6872 C.2     1  UNL1        0.2493
      9 O         137.9012  138.7610  167.9084 O.2     1  UNL1       -0.2699
     10 N         139.6076  140.1123  166.3569 N.am    1  UNL1       -0.2678
     11 C         139.0828  139.6976  165.0142 C.3     1  UNL1        0.0767
     12 C         138.3025  140.6704  164.1808 C.3     1  UNL1        0.0255
     13 C         137.7778  140.2557  162.8382 C.3     1  UNL1        0.0683
     14 C         138.0333  138.8681  162.3290 C.3     1  UNL1        0.2640
     15 F         138.0157  137.6744  161.4208 F       1  UNL1       -0.2043
     16 F         137.2469  139.4264  161.1801 F       1  UNL1       -0.2043
     17 C         138.8136  137.8953  163.1625 C.3     1  UNL1        0.0683
     18 C         139.3384  138.3100  164.5051 C.3     1  UNL1        0.0255
     19 O         142.4556  140.8655  164.6368 O.2     1  UNL1       -0.2729
     20 C         141.6066  141.6948  165.5539 C.2     1  UNL1        0.2451
     21 N         141.5965  143.1889  165.4201 N.am    1  UNL1       -0.2988
     22 H         141.0393  143.7333  166.0220 H       1  UNL1        0.1498
     23 C         142.4354  143.8534  164.3691 C.3     1  UNL1        0.1164
     24 C         141.8026  144.3315  163.0960 C.ar    1  UNL1       -0.0024
     25 C         142.3632  143.9025  161.7725 C.ar    1  UNL1        0.0005
     26 C         141.7303  144.3807  160.4994 C.ar    1  UNL1        0.0369
     27 C         140.5368  145.2879  160.5497 C.ar    1  UNL1        0.1468
     28 C         139.9762  145.7170  161.8732 C.ar    1  UNL1        0.0369
     29 C         140.6091  145.2388  163.1464 C.ar    1  UNL1        0.0005
     30 O         139.9040  145.7661  159.2766 O.3     1  UNL1       -0.4045
     31 C         140.2931  145.1469  157.9669 C.3     1  UNL1        0.5753
     32 F         140.6822  144.5277  156.6573 F       1  UNL1       -0.1328
     33 F         141.2516  146.2737  157.7190 F       1  UNL1       -0.1328
     34 F         139.3346  144.0200  158.2149 F       1  UNL1       -0.1328
@<TRIPOS>BOND
     1    19    20    2
     2    20    21   am
     3    21    23    1
     4    23    24    1
     5    24    25   ar
     6    25    26   ar
     7    26    27   ar
     8    27    30    1
     9    30    31    1
    10    31    32    1
    11    31    33    1
    12    31    34    1
    13    27    28   ar
    14    28    29   ar
    15    20     1    1
    16     1     2    1
    17     2     3   ar
    18     3     4   ar
    19     4     5   ar
    20     5     6   ar
    21     6     7   ar
    22     7     8    1
    23     8     9    2
    24     8    10   am
    25    10    11    1
    26    11    12    1
    27    12    13    1
    28    13    14    1
    29    14    15    1
    30    14    16    1
    31    14    17    1
    32    17    18    1
    33    29    24   ar
    34    10     1    1
    35    18    11    1
    36     7     2   ar
    37    21    22    1
@<TRIPOS>MOLECULE
*****
 34 37 0 0 0
SMALL
GASTEIGER

@<TRIPOS>ATOM
      1 C         141.2931  140.5466  166.5897 C.3     1  UNL1        0.1751
      2 C         141.5042  140.7141  168.0653 C.ar    1  UNL1        0.0089
      3 C         142.6376  141.2951  168.8576 C.ar    1  UNL1       -0.0021
      4 C         142.5665  141.3276  170.3555 C.ar    1  UNL1       -0.0003
      5 C         141.3618  140.7792  171.0612 C.ar    1  UNL1        0.0001
      6 C         140.2284  140.1982  170.2690 C.ar    1  UNL1        0.0043
      7 C         140.2995  140.1656  168.7711 C.ar    1  UNL1        0.0516
      8 C         139.3440  139.6592  167.7316 C.2     1  UNL1        0.2493
      9 O         138.0088  139.0281  167.9942 O.2     1  UNL1       -0.2699
     10 N         139.9581  139.8947  166.3834 N.am    1  UNL1       -0.2678
     11 C         139.3447  139.5405  165.0612 C.3     1  UNL1        0.0767
     12 C         138.5359  140.5582  164.3129 C.3     1  UNL1        0.0255
     13 C         137.9226  140.2039  162.9906 C.3     1  UNL1        0.0683
     14 C         138.1181  138.8320  162.4167 C.3     1  UNL1        0.2640
     15 F         138.0210  137.6737  161.4685 F       1  UNL1       -0.2043
     16 F         137.2755  139.4475  161.3390 F       1  UNL1       -0.2043
     17 C         138.9269  137.8142  163.1650 C.3     1  UNL1        0.0683
     18 C         139.5402  138.1685  164.4873 C.3     1  UNL1        0.0255
     19 O         141.9165  142.1154  164.6148 O.2     1  UNL1       -0.2729
     20 C         142.2493  140.9588  165.5100 C.2     1  UNL1        0.2451
     21 N         143.5384  140.2143  165.3254 N.am    1  UNL1       -0.2988
     22 H         143.7569  139.4552  165.9130 H       1  UNL1        0.1498
     23 C         144.4946  140.6265  164.2457 C.3     1  UNL1        0.1164
     24 C         144.2624  140.1870  162.8305 C.ar    1  UNL1       -0.0024
     25 C         144.2842  141.1942  161.7191 C.ar    1  UNL1        0.0005
     26 C         144.0520  140.7546  160.3039 C.ar    1  UNL1        0.0369
     27 C         143.7978  139.3078  160.0000 C.ar    1  UNL1        0.1468
     28 C         143.7760  138.3007  161.1113 C.ar    1  UNL1        0.0369
     29 C         144.0082  138.7403  162.5266 C.ar    1  UNL1        0.0005
     30 O         143.5656  138.8684  158.5848 O.3     1  UNL1       -0.4045
     31 C         142.2555  138.2492  158.1971 C.3     1  UNL1        0.5753
     32 F         140.9454  137.6300  157.8094 F       1  UNL1       -0.1328
     33 F         142.9695  136.9957  157.7863 F       1  UNL1       -0.1328
     34 F         141.5415  139.5027  158.6079 F       1  UNL1       -0.1328
@<TRIPOS>BOND
     1    19    20    2
     2    20    21   am
     3    21    23    1
     4    23    24    1
     5    24    25   ar
     6    25    26   ar
     7    26    27   ar
     8    27    30    1
     9    30    31    1
    10    31    32    1
    11    31    33    1
    12    31    34    1
    13    27    28   ar
    14    28    29   ar
    15    20     1    1
    16     1     2    1
    17     2     3   ar
    18     3     4   ar
    19     4     5   ar
    20     5     6   ar
    21     6     7   ar
    22     7     8    1
    23     8     9    2
    24     8    10   am
    25    10    11    1
    26    11    12    1
    27    12    13    1
    28    13    14    1
    29    14    15    1
    30    14    16    1
    31    14    17    1
    32    17    18    1
    33    29    24   ar
    34    10     1    1
    35    18    11    1
    36     7     2   ar
    37    21    22    1
@<TRIPOS>MOLECULE
*****
 34 37 0 0 0
SMALL
GASTEIGER

@<TRIPOS>ATOM
      1 C         139.7801  142.5242  161.0480 C.3     1  UNL1        0.1751
      2 C         139.6312  143.0192  159.6399 C.ar    1  UNL1        0.0089
      3 C         140.2147  144.2015  158.9247 C.ar    1  UNL1       -0.0021
      4 C         139.8780  144.4476  157.4839 C.ar    1  UNL1       -0.0003
      5 C         138.9578  143.5113  156.7583 C.ar    1  UNL1        0.0001
      6 C         138.3743  142.3290  157.4735 C.ar    1  UNL1        0.0043
      7 C         138.7110  142.0829  158.9143 C.ar    1  UNL1        0.0516
      8 C         138.2911  141.0093  159.8740 C.2     1  UNL1        0.2493
      9 O         137.3719  139.8640  159.5685 O.2     1  UNL1       -0.2699
     10 N         138.9518  141.2819  161.1927 N.am    1  UNL1       -0.2678
     11 C         138.8094  140.4572  162.4375 C.3     1  UNL1        0.0767
     12 C         139.2558  139.0253  162.4437 C.3     1  UNL1        0.0255
     13 C         139.1133  138.2006  163.6885 C.3     1  UNL1        0.0683
     14 C         138.5244  138.8078  164.9272 C.3     1  UNL1        0.2640
     15 F         138.0309  138.9329  166.3382 F       1  UNL1       -0.2043
     16 F         138.7995  137.4192  165.4233 F       1  UNL1       -0.2043
     17 C         138.0779  140.2398  164.9210 C.3     1  UNL1        0.0683
     18 C         138.2204  141.0645  163.6762 C.3     1  UNL1        0.0255
     19 O         140.2903  144.5457  162.5982 O.2     1  UNL1       -0.2729
     20 C         140.6112  143.1598  162.1228 C.2     1  UNL1        0.2451
     21 N         141.7635  142.4094  162.7223 N.am    1  UNL1       -0.2988
     22 H         141.9743  141.4997  162.4103 H       1  UNL1        0.1498
     23 C         142.5947  143.0450  163.7970 C.3     1  UNL1        0.1164
     24 C         142.2753  142.7916  165.2405 C.ar    1  UNL1       -0.0024
     25 C         140.8521  142.8328  165.7122 C.ar    1  UNL1        0.0005
     26 C         140.5328  142.5794  167.1558 C.ar    1  UNL1        0.0369
     27 C         141.6367  142.2847  168.1277 C.ar    1  UNL1        0.1468
     28 C         143.0600  142.2434  167.6559 C.ar    1  UNL1        0.0369
     29 C         143.3793  142.4969  166.2123 C.ar    1  UNL1        0.0005
     30 O         141.3173  142.0313  169.5711 O.3     1  UNL1       -0.4045
     31 C         140.2927  142.8735  170.2717 C.3     1  UNL1        0.5753
     32 F         139.2680  143.7156  170.9723 F       1  UNL1       -0.1328
     33 F         141.1833  144.0724  170.1329 F       1  UNL1       -0.1328
     34 F         139.4021  141.6745  170.4105 F       1  UNL1       -0.1328
@<TRIPOS>BOND
     1    19    20    2
     2    20    21   am
     3    21    23    1
     4    23    24    1
     5    24    25   ar
     6    25    26   ar
     7    26    27   ar
     8    27    30    1
     9    30    31    1
    10    31    32    1
    11    31    33    1
    12    31    34    1
    13    27    28   ar
    14    28    29   ar
    15    20     1    1
    16     1     2    1
    17     2     3   ar
    18     3     4   ar
    19     4     5   ar
    20     5     6   ar
    21     6     7   ar
    22     7     8    1
    23     8     9    2
    24     8    10   am
    25    10    11    1
    26    11    12    1
    27    12    13    1
    28    13    14    1
    29    14    15    1
    30    14    16    1
    31    14    17    1
    32    17    18    1
    33    29    24   ar
    34    10     1    1
    35    18    11    1
    36     7     2   ar
    37    21    22    1
@<TRIPOS>MOLECULE
*****
 34 37 0 0 0
SMALL
GASTEIGER

@<TRIPOS>ATOM
      1 C         142.2039  142.5794  161.3061 C.3     1  UNL1        0.1751
      2 C         142.8060  142.5441  159.9328 C.ar    1  UNL1        0.0089
      3 C         143.9654  141.7807  159.3645 C.ar    1  UNL1       -0.0021
      4 C         144.3428  141.9532  157.9231 C.ar    1  UNL1       -0.0003
      5 C         143.5607  142.8890  157.0499 C.ar    1  UNL1        0.0001
      6 C         142.4013  143.6524  157.6181 C.ar    1  UNL1        0.0043
      7 C         142.0240  143.4800  159.0596 C.ar    1  UNL1        0.0516
      8 C         140.9385  144.0936  159.8933 C.2     1  UNL1        0.2493
      9 O         139.9205  145.0891  159.4214 O.2     1  UNL1       -0.2699
     10 N         141.0496  143.5371  161.2818 N.am    1  UNL1       -0.2678
     11 C         140.1624  143.8782  162.4421 C.3     1  UNL1        0.0767
     12 C         138.7000  143.5485  162.3904 C.3     1  UNL1        0.0255
     13 C         137.8128  143.8896  163.5508 C.3     1  UNL1        0.0683
     14 C         138.3879  144.5606  164.7628 C.3     1  UNL1        0.2640
     15 F         138.4644  145.1934  166.1207 F       1  UNL1       -0.2043
     16 F         136.9520  144.4506  165.1827 F       1  UNL1       -0.2043
     17 C         139.8503  144.8904  164.8144 C.3     1  UNL1        0.0683
     18 C         140.7375  144.5492  163.6541 C.3     1  UNL1        0.0255
     19 O         143.9432  142.1804  163.1944 O.2     1  UNL1       -0.2729
     20 C         142.6735  141.7947  162.4952 C.2     1  UNL1        0.2451
     21 N         141.8734  140.6242  162.9850 N.am    1  UNL1       -0.2988
     22 H         141.0400  140.3710  162.5261 H       1  UNL1        0.1498
     23 C         142.3430  139.8396  164.1740 C.3     1  UNL1        0.1164
     24 C         141.9858  140.2910  165.5591 C.ar    1  UNL1       -0.0024
     25 C         142.6939  139.7057  166.7448 C.ar    1  UNL1        0.0005
     26 C         142.3366  140.1572  168.1299 C.ar    1  UNL1        0.0369
     27 C         141.2711  141.1941  168.3293 C.ar    1  UNL1        0.1468
     28 C         140.5629  141.7794  167.1436 C.ar    1  UNL1        0.0369
     29 C         140.9203  141.3279  165.7584 C.ar    1  UNL1        0.0005
     30 O         140.9138  141.6455  169.7144 O.3     1  UNL1       -0.4045
     31 C         140.6786  143.1008  169.9917 C.3     1  UNL1        0.5753
     32 F         140.4434  144.5561  170.2690 F       1  UNL1       -0.1328
     33 F         139.2730  142.7929  170.4151 F       1  UNL1       -0.1328
     34 F         142.0843  143.4087  169.5682 F       1  UNL1       -0.1328
@<TRIPOS>BOND
     1    19    20    2
     2    20    21   am
     3    21    23    1
     4    23    24    1
     5    24    25   ar
     6    25    26   ar
     7    26    27   ar
     8    27    30    1
     9    30    31    1
    10    31    32    1
    11    31    33    1
    12    31    34    1
    13    27    28   ar
    14    28    29   ar
    15    20     1    1
    16     1     2    1
    17     2     3   ar
    18     3     4   ar
    19     4     5   ar
    20     5     6   ar
    21     6     7   ar
    22     7     8    1
    23     8     9    2
    24     8    10   am
    25    10    11    1
    26    11    12    1
    27    12    13    1
    28    13    14    1
    29    14    15    1
    30    14    16    1
    31    14    17    1
    32    17    18    1
    33    29    24   ar
    34    10     1    1
    35    18    11    1
    36     7     2   ar
    37    21    22    1
@<TRIPOS>MOLECULE
*****
 34 37 0 0 0
SMALL
GASTEIGER

@<TRIPOS>ATOM
      1 C         142.8311  139.9561  160.9870 C.3     1  UNL1        0.1751
      2 C         142.8352  139.3633  159.6091 C.ar    1  UNL1        0.0089
      3 C         142.2311  138.1071  159.0552 C.ar    1  UNL1       -0.0021
      4 C         142.4049  137.7677  157.6045 C.ar    1  UNL1       -0.0003
      5 C         143.1828  138.6846  156.7077 C.ar    1  UNL1        0.0001
      6 C         143.7869  139.9408  157.2617 C.ar    1  UNL1        0.0043
      7 C         143.6131  140.2802  158.7124 C.ar    1  UNL1        0.0516
      8 C         144.0898  141.4396  159.5361 C.2     1  UNL1        0.2493
      9 O         144.9064  142.5963  159.0408 O.2     1  UNL1       -0.2699
     10 N         143.6065  141.2394  160.9419 N.am    1  UNL1       -0.2678
     11 C         143.8549  142.1606  162.0993 C.3     1  UNL1        0.0767
     12 C         144.6371  141.6804  163.2856 C.3     1  UNL1        0.0255
     13 C         144.8856  142.6016  164.4431 C.3     1  UNL1        0.0683
     14 C         144.3518  144.0031  164.4141 C.3     1  UNL1        0.2640
     15 F         144.0538  145.4072  164.8497 F       1  UNL1       -0.2043
     16 F         145.0305  144.0104  165.7518 F       1  UNL1       -0.2043
     17 C         143.5696  144.4833  163.2278 C.3     1  UNL1        0.0683
     18 C         143.3212  143.5621  162.0704 C.3     1  UNL1        0.0255
     19 O         142.6041  138.0308  162.7166 O.2     1  UNL1       -0.2729
     20 C         142.1680  139.3688  162.1975 C.2     1  UNL1        0.2451
     21 N         141.0687  140.1195  162.8890 N.am    1  UNL1       -0.2988
     22 H         140.7825  140.9977  162.5484 H       1  UNL1        0.1498
     23 C         140.4057  139.5322  164.0996 C.3     1  UNL1        0.1164
     24 C         140.6772  140.1089  165.4574 C.ar    1  UNL1       -0.0024
     25 C         139.9607  139.5679  166.6590 C.ar    1  UNL1        0.0005
     26 C         140.2323  140.1446  168.0168 C.ar    1  UNL1        0.0369
     27 C         141.2204  141.2624  168.1730 C.ar    1  UNL1        0.1468
     28 C         141.9369  141.8034  166.9713 C.ar    1  UNL1        0.0369
     29 C         141.6653  141.2266  165.6135 C.ar    1  UNL1        0.0005
     30 O         141.4919  141.8391  169.5308 O.3     1  UNL1       -0.4045
     31 C         141.1604  143.2739  169.8163 C.3     1  UNL1        0.5753
     32 F         140.8289  144.7086  170.1018 F       1  UNL1       -0.1328
     33 F         142.5925  143.5324  170.1800 F       1  UNL1       -0.1328
     34 F         139.7283  143.0154  169.4526 F       1  UNL1       -0.1328
@<TRIPOS>BOND
     1    19    20    2
     2    20    21   am
     3    21    23    1
     4    23    24    1
     5    24    25   ar
     6    25    26   ar
     7    26    27   ar
     8    27    30    1
     9    30    31    1
    10    31    32    1
    11    31    33    1
    12    31    34    1
    13    27    28   ar
    14    28    29   ar
    15    20     1    1
    16     1     2    1
    17     2     3   ar
    18     3     4   ar
    19     4     5   ar
    20     5     6   ar
    21     6     7   ar
    22     7     8    1
    23     8     9    2
    24     8    10   am
    25    10    11    1
    26    11    12    1
    27    12    13    1
    28    13    14    1
    29    14    15    1
    30    14    16    1
    31    14    17    1
    32    17    18    1
    33    29    24   ar
    34    10     1    1
    35    18    11    1
    36     7     2   ar
    37    21    22    1
@<TRIPOS>MOLECULE
*****
 34 37 0 0 0
SMALL
GASTEIGER

@<TRIPOS>ATOM
      1 C         141.0544  140.6176  166.8568 C.3     1  UNL1        0.1751
      2 C         141.6098  140.3679  168.2277 C.ar    1  UNL1        0.0089
      3 C         142.3617  139.2080  168.8101 C.ar    1  UNL1       -0.0021
      4 C         142.7985  139.2417  170.2447 C.ar    1  UNL1       -0.0003
      5 C         142.4834  140.4353  171.0968 C.ar    1  UNL1        0.0001
      6 C         141.7316  141.5952  170.5144 C.ar    1  UNL1        0.0043
      7 C         141.2948  141.5615  169.0798 C.ar    1  UNL1        0.0516
      8 C         140.5447  142.5488  168.2356 C.2     1  UNL1        0.2493
      9 O         140.0330  143.8849  168.6862 O.2     1  UNL1       -0.2699
     10 N         140.3962  141.9654  166.8617 N.am    1  UNL1       -0.2678
     11 C         139.7099  142.6157  165.6971 C.3     1  UNL1        0.0767
     12 C         140.1441  143.9746  165.2340 C.3     1  UNL1        0.0255
     13 C         139.4578  144.6249  164.0695 C.3     1  UNL1        0.0683
     14 C         138.3373  143.9162  163.3681 C.3     1  UNL1        0.2640
     15 F         137.2344  143.6470  162.3876 F       1  UNL1       -0.2043
     16 F         138.3886  145.1817  162.5644 F       1  UNL1       -0.2043
     17 C         137.9030  142.5572  163.8312 C.3     1  UNL1        0.0683
     18 C         138.5893  141.9070  164.9958 C.3     1  UNL1        0.0255
     19 O         142.3132  139.7588  164.7526 O.2     1  UNL1       -0.2729
     20 C         141.1420  139.6833  165.6865 C.2     1  UNL1        0.2451
     21 N         140.0581  138.6735  165.4502 N.am    1  UNL1       -0.2988
     22 H         139.2894  138.6240  166.0632 H       1  UNL1        0.1498
     23 C         140.1457  137.7393  164.2800 C.3     1  UNL1        0.1164
     24 C         139.7306  138.2051  162.9159 C.ar    1  UNL1       -0.0024
     25 C         140.6501  138.0144  161.7462 C.ar    1  UNL1        0.0005
     26 C         140.2349  138.4802  160.3822 C.ar    1  UNL1        0.0369
     27 C         138.9003  139.1367  160.1877 C.ar    1  UNL1        0.1468
     28 C         137.9808  139.3274  161.3574 C.ar    1  UNL1        0.0369
     29 C         138.3960  138.8616  162.7215 C.ar    1  UNL1        0.0005
     30 O         138.4852  139.6025  158.8236 O.3     1  UNL1       -0.4045
     31 C         138.1606  141.0484  158.5913 C.3     1  UNL1        0.5753
     32 F         137.8360  142.4943  158.3590 F       1  UNL1       -0.1328
     33 F         139.4477  141.4435  159.2524 F       1  UNL1       -0.1328
     34 F         136.8734  140.6532  157.9302 F       1  UNL1       -0.1328
@<TRIPOS>BOND
     1    19    20    2
     2    20    21   am
     3    21    23    1
     4    23    24    1
     5    24    25   ar
     6    25    26   ar
     7    26    27   ar
     8    27    30    1
     9    30    31    1
    10    31    32    1
    11    31    33    1
    12    31    34    1
    13    27    28   ar
    14    28    29   ar
    15    20     1    1
    16     1     2    1
    17     2     3   ar
    18     3     4   ar
    19     4     5   ar
    20     5     6   ar
    21     6     7   ar
    22     7     8    1
    23     8     9    2
    24     8    10   am
    25    10    11    1
    26    11    12    1
    27    12    13    1
    28    13    14    1
    29    14    15    1
    30    14    16    1
    31    14    17    1
    32    17    18    1
    33    29    24   ar
    34    10     1    1
    35    18    11    1
    36     7     2   ar
    37    21    22    1
@<TRIPOS>MOLECULE
*****
 34 37 0 0 0
SMALL
GASTEIGER

@<TRIPOS>ATOM
      1 C         142.6874  140.0417  160.7029 C.3     1  UNL1        0.1751
      2 C         142.7339  139.4562  159.3226 C.ar    1  UNL1        0.0089
      3 C         142.0938  138.2373  158.7273 C.ar    1  UNL1       -0.0021
      4 C         142.3271  137.8961  157.2854 C.ar    1  UNL1       -0.0003
      5 C         143.2006  138.7738  156.4388 C.ar    1  UNL1        0.0001
      6 C         143.8407  139.9927  157.0342 C.ar    1  UNL1        0.0043
      7 C         143.6074  140.3339  158.4761 C.ar    1  UNL1        0.0516
      8 C         144.1007  141.4618  159.3331 C.2     1  UNL1        0.2493
      9 O         145.0040  142.5749  158.8915 O.2     1  UNL1       -0.2699
     10 N         143.5321  141.2812  160.7094 N.am    1  UNL1       -0.2678
     11 C         143.7670  142.1819  161.8856 C.3     1  UNL1        0.0767
     12 C         143.2929  143.6045  161.8473 C.3     1  UNL1        0.0255
     13 C         143.5278  144.5052  163.0236 C.3     1  UNL1        0.0683
     14 C         144.2367  143.9834  164.2381 C.3     1  UNL1        0.2640
     15 F         144.8556  143.9518  165.6041 F       1  UNL1       -0.2043
     16 F         143.9776  145.3951  164.6742 F       1  UNL1       -0.2043
     17 C         144.7107  142.5608  164.2763 C.3     1  UNL1        0.0683
     18 C         144.4759  141.6601  163.1001 C.3     1  UNL1        0.0255
     19 O         140.5876  140.0502  162.2328 O.2     1  UNL1       -0.2729
     20 C         141.9292  139.4852  161.8714 C.2     1  UNL1        0.2451
     21 N         142.5128  138.3637  162.6788 N.am    1  UNL1       -0.2988
     22 H         143.3934  137.9928  162.4416 H       1  UNL1        0.1498
     23 C         141.7546  137.8072  163.8473 C.3     1  UNL1        0.1164
     24 C         141.8081  138.5022  165.1755 C.ar    1  UNL1       -0.0024
     25 C         143.0538  138.4334  166.0084 C.ar    1  UNL1        0.0005
     26 C         143.1072  139.1283  167.3366 C.ar    1  UNL1        0.0369
     27 C         141.9150  139.8921  167.8320 C.ar    1  UNL1        0.1468
     28 C         140.6694  139.9609  166.9992 C.ar    1  UNL1        0.0369
     29 C         140.6159  139.2659  165.6709 C.ar    1  UNL1        0.0005
     30 O         141.9685  140.5870  169.1602 O.3     1  UNL1       -0.4045
     31 C         143.1538  141.4346  169.5161 C.3     1  UNL1        0.5753
     32 F         144.3391  142.2822  169.8719 F       1  UNL1       -0.1328
     33 F         142.7408  142.4444  168.4867 F       1  UNL1       -0.1328
     34 F         143.5669  140.4248  170.5455 F       1  UNL1       -0.1328
@<TRIPOS>BOND
     1    19    20    2
     2    20    21   am
     3    21    23    1
     4    23    24    1
     5    24    25   ar
     6    25    26   ar
     7    26    27   ar
     8    27    30    1
     9    30    31    1
    10    31    32    1
    11    31    33    1
    12    31    34    1
    13    27    28   ar
    14    28    29   ar
    15    20     1    1
    16     1     2    1
    17     2     3   ar
    18     3     4   ar
    19     4     5   ar
    20     5     6   ar
    21     6     7   ar
    22     7     8    1
    23     8     9    2
    24     8    10   am
    25    10    11    1
    26    11    12    1
    27    12    13    1
    28    13    14    1
    29    14    15    1
    30    14    16    1
    31    14    17    1
    32    17    18    1
    33    29    24   ar
    34    10     1    1
    35    18    11    1
    36     7     2   ar
    37    21    22    1
@<TRIPOS>MOLECULE
*****
 34 37 0 0 0
SMALL
GASTEIGER

@<TRIPOS>ATOM
      1 C         140.2625  140.4821  161.3738 C.3     1  UNL1        0.1751
      2 C         140.5665  140.0206  159.9792 C.ar    1  UNL1        0.0089
      3 C         141.1194  138.7321  159.4466 C.ar    1  UNL1       -0.0021
      4 C         141.3189  138.5549  157.9705 C.ar    1  UNL1       -0.0003
      5 C         140.9656  139.6663  157.0272 C.ar    1  UNL1        0.0001
      6 C         140.4126  140.9549  157.5599 C.ar    1  UNL1        0.0043
      7 C         140.2131  141.1320  159.0359 C.ar    1  UNL1        0.0516
      8 C         139.6907  142.2803  159.8474 C.2     1  UNL1        0.2493
      9 O         139.2204  143.5988  159.3086 O.2     1  UNL1       -0.2699
     10 N         139.7212  141.8786  161.2923 N.am    1  UNL1       -0.2678
     11 C         139.2868  142.7249  162.4521 C.3     1  UNL1        0.0767
     12 C         137.8380  142.7842  162.8362 C.3     1  UNL1        0.0255
     13 C         137.4036  143.6305  163.9959 C.3     1  UNL1        0.0683
     14 C         138.4179  144.4175  164.7716 C.3     1  UNL1        0.2640
     15 F         138.9992  145.3358  165.8054 F       1  UNL1       -0.2043
     16 F         137.1710  144.7957  165.5148 F       1  UNL1       -0.2043
     17 C         139.8666  144.3582  164.3876 C.3     1  UNL1        0.0683
     18 C         140.3011  143.5119  163.2278 C.3     1  UNL1        0.0255
     19 O         139.4271  138.6938  163.0631 O.2     1  UNL1       -0.2729
     20 C         140.4644  139.6866  162.6293 C.2     1  UNL1        0.2451
     21 N         141.7037  139.8839  163.4512 N.am    1  UNL1       -0.2988
     22 H         142.3845  140.5355  163.1665 H       1  UNL1        0.1498
     23 C         141.9055  139.0884  164.7067 C.3     1  UNL1        0.1164
     24 C         141.6879  139.7307  166.0446 C.ar    1  UNL1       -0.0024
     25 C         140.5714  140.7148  166.2314 C.ar    1  UNL1        0.0005
     26 C         140.3538  141.3571  167.5693 C.ar    1  UNL1        0.0369
     27 C         141.2527  141.0154  168.7205 C.ar    1  UNL1        0.1468
     28 C         142.3692  140.0313  168.5337 C.ar    1  UNL1        0.0369
     29 C         142.5868  139.3889  167.1957 C.ar    1  UNL1        0.0005
     30 O         141.0351  141.6577  170.0584 O.3     1  UNL1       -0.4045
     31 C         140.6083  143.0934  170.1406 C.3     1  UNL1        0.5753
     32 F         140.1815  144.5290  170.2229 F       1  UNL1       -0.1328
     33 F         139.2251  142.6601  170.5268 F       1  UNL1       -0.1328
     34 F         141.9915  143.5266  169.7545 F       1  UNL1       -0.1328
@<TRIPOS>BOND
     1    19    20    2
     2    20    21   am
     3    21    23    1
     4    23    24    1
     5    24    25   ar
     6    25    26   ar
     7    26    27   ar
     8    27    30    1
     9    30    31    1
    10    31    32    1
    11    31    33    1
    12    31    34    1
    13    27    28   ar
    14    28    29   ar
    15    20     1    1
    16     1     2    1
    17     2     3   ar
    18     3     4   ar
    19     4     5   ar
    20     5     6   ar
    21     6     7   ar
    22     7     8    1
    23     8     9    2
    24     8    10   am
    25    10    11    1
    26    11    12    1
    27    12    13    1
    28    13    14    1
    29    14    15    1
    30    14    16    1
    31    14    17    1
    32    17    18    1
    33    29    24   ar
    34    10     1    1
    35    18    11    1
    36     7     2   ar
    37    21    22    1
@<TRIPOS>MOLECULE
*****
 34 37 0 0 0
SMALL
GASTEIGER

@<TRIPOS>ATOM
      1 C         139.8778  142.9610  160.4644 C.3     1  UNL1        0.1751
      2 C         139.3826  142.9396  159.0486 C.ar    1  UNL1        0.0089
      3 C         138.0518  142.5821  158.4561 C.ar    1  UNL1       -0.0021
      4 C         137.8471  142.6571  156.9721 C.ar    1  UNL1       -0.0003
      5 C         138.9731  143.0896  156.0806 C.ar    1  UNL1        0.0001
      6 C         140.3040  143.4471  156.6731 C.ar    1  UNL1        0.0043
      7 C         140.5087  143.3721  158.1571 C.ar    1  UNL1        0.0516
      8 C         141.6998  143.6608  159.0219 C.2     1  UNL1        0.2493
      9 O         143.0448  144.1225  158.5444 O.2     1  UNL1       -0.2699
     10 N         141.3099  143.4067  160.4479 N.am    1  UNL1       -0.2678
     11 C         142.1965  143.5698  161.6468 C.3     1  UNL1        0.0767
     12 C         142.1715  144.8491  162.4296 C.3     1  UNL1        0.0255
     13 C         143.0581  145.0121  163.6285 C.3     1  UNL1        0.0683
     14 C         143.9696  143.8960  164.0446 C.3     1  UNL1        0.2640
     15 F         144.9963  143.1319  164.8270 F       1  UNL1       -0.2043
     16 F         144.3012  144.9099  165.0992 F       1  UNL1       -0.2043
     17 C         143.9946  142.6167  163.2618 C.3     1  UNL1        0.0683
     18 C         143.1080  142.4536  162.0629 C.3     1  UNL1        0.0255
     19 O         137.9693  143.4952  162.1443 O.2     1  UNL1       -0.2729
     20 C         139.0807  142.6000  161.6828 C.2     1  UNL1        0.2451
     21 N         139.3953  141.3437  162.4397 N.am    1  UNL1       -0.2988
     22 H         140.1248  140.7561  162.1368 H       1  UNL1        0.1498
     23 C         138.5982  140.9828  163.6581 C.3     1  UNL1        0.1164
     24 C         139.1568  141.2466  165.0249 C.ar    1  UNL1       -0.0024
     25 C         139.6917  142.6056  165.3671 C.ar    1  UNL1        0.0005
     26 C         140.2503  142.8693  166.7340 C.ar    1  UNL1        0.0369
     27 C         140.2740  141.7742  167.7588 C.ar    1  UNL1        0.1468
     28 C         139.7391  140.4152  167.4166 C.ar    1  UNL1        0.0369
     29 C         139.1805  140.1514  166.0496 C.ar    1  UNL1        0.0005
     30 O         140.8326  142.0380  169.1256 O.3     1  UNL1       -0.4045
     31 C         140.0591  142.8712  170.1041 C.3     1  UNL1        0.5753
     32 F         139.2855  143.7044  171.0825 F       1  UNL1       -0.1328
     33 F         141.0032  144.0144  169.8770 F       1  UNL1       -0.1328
     34 F         139.1149  141.7279  170.3311 F       1  UNL1       -0.1328
@<TRIPOS>BOND
     1    19    20    2
     2    20    21   am
     3    21    23    1
     4    23    24    1
     5    24    25   ar
     6    25    26   ar
     7    26    27   ar
     8    27    30    1
     9    30    31    1
    10    31    32    1
    11    31    33    1
    12    31    34    1
    13    27    28   ar
    14    28    29   ar
    15    20     1    1
    16     1     2    1
    17     2     3   ar
    18     3     4   ar
    19     4     5   ar
    20     5     6   ar
    21     6     7   ar
    22     7     8    1
    23     8     9    2
    24     8    10   am
    25    10    11    1
    26    11    12    1
    27    12    13    1
    28    13    14    1
    29    14    15    1
    30    14    16    1
    31    14    17    1
    32    17    18    1
    33    29    24   ar
    34    10     1    1
    35    18    11    1
    36     7     2   ar
    37    21    22    1
