@<TRIPOS>MOLECULE
*****
 30 34 0 0 0
SMALL
GASTEIGER

@<TRIPOS>ATOM
      1 C         137.2852  141.5489  162.9878 C.3     1  UNL1        0.0730
      2 C         139.5518  139.0348  164.8871 C.3     1  UNL1        0.0350
      3 C         140.0158  137.6139  164.7611 C.3     1  UNL1        0.0072
      4 C         139.0908  138.1948  163.7331 C.3     1  UNL1        0.0214
      5 C         138.1856  139.0343  162.8811 C.3     1  UNL1        0.0724
      6 N         138.0872  140.3932  163.5086 N.3     1  UNL1       -0.2724
      7 C         138.9315  140.3935  164.7484 C.3     1  UNL1        0.0761
      8 C         141.7938  139.9268  168.6855 C.ar    1  UNL1        0.1387
      9 C         142.5400  139.4962  167.4576 C.ar    1  UNL1        0.0366
     10 C         141.7927  139.1988  166.1915 C.ar    1  UNL1       -0.0011
     11 C         140.2991  139.3321  166.1532 C.ar    1  UNL1       -0.0213
     12 C         139.5529  139.7628  167.3811 C.ar    1  UNL1       -0.0011
     13 C         140.3003  140.0601  168.6472 C.ar    1  UNL1        0.0366
     14 C         141.8792  141.0060  171.0473 C.3     1  UNL1        0.2525
     15 O         142.5411  140.2242  169.9516 O.3     1  UNL1       -0.4714
     16 C         137.9820  142.7589  162.4399 C.3     1  UNL1        0.0294
     17 C         137.7527  144.1033  163.0643 C.3     1  UNL1        0.0666
     18 S         138.8567  144.7747  163.8260 S.3     1  UNL1       -0.0756
     19 C         140.0110  143.9674  164.3417 C.ar    1  UNL1        0.1933
     20 N         140.1919  143.4886  165.7516 N.ar    1  UNL1       -0.1220
     21 N         141.4797  142.7224  165.8193 N.ar    1  UNL1       -0.1250
     22 C         142.0947  142.7277  164.4511 C.ar    1  UNL1        0.2029
     23 N         141.1870  143.4971  163.5379 N.ar    1  UNL1       -0.2860
     24 C         141.4151  143.7516  162.0774 C.3     1  UNL1        0.1341
     25 C         143.3899  142.0776  164.0641 C.ar    1  UNL1        0.1964
     26 O         144.7618  142.5515  164.4427 O.2     1  UNL1       -0.4283
     27 C         145.7605  141.6064  163.8431 C.ar    1  UNL1        0.2849
     28 N         145.0058  140.5484  163.0941 N.ar    1  UNL1       -0.2085
     29 C         143.5407  140.8397  163.2307 C.ar    1  UNL1        0.1001
     30 C         142.4226  140.0343  162.6379 C.3     1  UNL1        0.0556
@<TRIPOS>BOND
     1    14    15    1
     2    15     8    1
     3     8     9   ar
     4     9    10   ar
     5    10    11   ar
     6    11     2    1
     7     2     3    1
     8     3     4    1
     9     4     5    1
    10     5     6    1
    11     6     1    1
    12     1    16    1
    13    16    17    1
    14    17    18    1
    15    18    19    1
    16    19    20   ar
    17    20    21   ar
    18    21    22   ar
    19    22    25    1
    20    25    26   ar
    21    26    27   ar
    22    27    28   ar
    23    28    29   ar
    24    29    30    1
    25    22    23   ar
    26    23    24    1
    27     6     7    1
    28    11    12   ar
    29    12    13   ar
    30    13     8   ar
    31     4     2    1
    32    23    19   ar
    33     7     2    1
    34    29    25   ar
@<TRIPOS>MOLECULE
*****
 30 34 0 0 0
SMALL
GASTEIGER

@<TRIPOS>ATOM
      1 C         141.8158  144.2340  161.3878 C.3     1  UNL1        0.0730
      2 C         143.9945  142.2422  163.9080 C.3     1  UNL1        0.0350
      3 C         145.4023  141.7400  164.0338 C.3     1  UNL1        0.0072
      4 C         144.9857  142.5065  162.8136 C.3     1  UNL1        0.0214
      5 C         144.2902  143.2848  161.7363 C.3     1  UNL1        0.0724
      6 N         142.8691  143.5015  162.1649 N.3     1  UNL1       -0.2724
      7 C         142.6864  142.8572  163.5070 C.3     1  UNL1        0.0761
      8 C         142.5633  140.6241  167.8555 C.ar    1  UNL1        0.1387
      9 C         142.6746  139.7144  166.6681 C.ar    1  UNL1        0.0366
     10 C         143.1517  140.2538  165.3522 C.ar    1  UNL1       -0.0011
     11 C         143.5174  141.7028  165.2238 C.ar    1  UNL1       -0.0213
     12 C         143.4061  142.6125  166.4113 C.ar    1  UNL1       -0.0011
     13 C         142.9290  142.0731  167.7272 C.ar    1  UNL1        0.0366
     14 C         142.9141  140.2804  170.4068 C.3     1  UNL1        0.2525
     15 O         142.0862  140.0847  169.1714 O.3     1  UNL1       -0.4714
     16 C         141.0670  145.3676  162.0236 C.3     1  UNL1        0.0294
     17 C         139.5689  145.3333  162.0897 C.3     1  UNL1        0.0666
     18 S         138.8843  144.7664  163.2979 S.3     1  UNL1       -0.0756
     19 C         138.4345  143.3353  163.3027 C.ar    1  UNL1        0.1933
     20 N         137.5324  142.6914  162.2920 N.ar    1  UNL1       -0.1220
     21 N         137.3482  141.2552  162.6837 N.ar    1  UNL1       -0.1250
     22 C         138.1364  141.0116  163.9364 C.ar    1  UNL1        0.2029
     23 N         138.8078  142.2972  164.3190 N.ar    1  UNL1       -0.2860
     24 C         139.6965  142.5077  165.5089 C.3     1  UNL1        0.1341
     25 C         138.2358  139.7108  164.6766 C.ar    1  UNL1        0.1964
     26 O         137.8301  139.4737  166.1011 O.2     1  UNL1       -0.4283
     27 C         138.1020  138.0350  166.4273 C.ar    1  UNL1        0.2849
     28 N         138.6757  137.3830  165.2043 N.ar    1  UNL1       -0.2085
     29 C         138.7584  138.4186  164.1224 C.ar    1  UNL1        0.1001
     30 C         139.2734  138.2004  162.7305 C.3     1  UNL1        0.0556
@<TRIPOS>BOND
     1    14    15    1
     2    15     8    1
     3     8     9   ar
     4     9    10   ar
     5    10    11   ar
     6    11     2    1
     7     2     3    1
     8     3     4    1
     9     4     5    1
    10     5     6    1
    11     6     1    1
    12     1    16    1
    13    16    17    1
    14    17    18    1
    15    18    19    1
    16    19    20   ar
    17    20    21   ar
    18    21    22   ar
    19    22    25    1
    20    25    26   ar
    21    26    27   ar
    22    27    28   ar
    23    28    29   ar
    24    29    30    1
    25    22    23   ar
    26    23    24    1
    27     6     7    1
    28    11    12   ar
    29    12    13   ar
    30    13     8   ar
    31     4     2    1
    32    23    19   ar
    33     7     2    1
    34    29    25   ar
@<TRIPOS>MOLECULE
*****
 30 34 0 0 0
SMALL
GASTEIGER

@<TRIPOS>ATOM
      1 C         140.5237  137.7635  162.2017 C.3     1  UNL1        0.0730
      2 C         143.2973  139.3842  164.3802 C.3     1  UNL1        0.0350
      3 C         144.7653  139.6824  164.3021 C.3     1  UNL1        0.0072
      4 C         144.0756  139.0045  163.1555 C.3     1  UNL1        0.0214
      5 C         143.1313  138.3511  162.1903 C.3     1  UNL1        0.0724
      6 N         141.7694  138.3271  162.8186 N.3     1  UNL1       -0.2724
      7 C         141.8720  138.9655  164.1720 C.3     1  UNL1        0.0761
      8 C         142.6843  141.1126  168.4896 C.ar    1  UNL1        0.1387
      9 C         142.9342  142.0219  167.3231 C.ar    1  UNL1        0.0366
     10 C         143.1385  141.4458  165.9533 C.ar    1  UNL1       -0.0011
     11 C         143.0930  139.9603  165.7500 C.ar    1  UNL1       -0.0213
     12 C         142.8431  139.0511  166.9165 C.ar    1  UNL1       -0.0011
     13 C         142.6388  139.6272  168.2863 C.ar    1  UNL1        0.0366
     14 C         141.9394  143.0792  170.0152 C.3     1  UNL1        0.2525
     15 O         142.4800  141.6888  169.8594 O.3     1  UNL1       -0.4714
     16 C         139.2013  137.9397  162.8876 C.3     1  UNL1        0.0294
     17 C         138.0480  138.5496  162.1474 C.3     1  UNL1        0.0666
     18 S         137.9484  140.0399  162.0107 S.3     1  UNL1       -0.0756
     19 C         138.9896  140.9216  162.6344 C.ar    1  UNL1        0.1933
     20 N         138.9627  141.4643  164.0325 N.ar    1  UNL1       -0.1220
     21 N         140.1968  142.2934  164.2316 N.ar    1  UNL1       -0.1250
     22 C         140.9862  142.2632  162.9565 C.ar    1  UNL1        0.2029
     23 N         140.2401  141.4153  161.9694 N.ar    1  UNL1       -0.2860
     24 C         140.6693  141.1141  160.5640 C.3     1  UNL1        0.1341
     25 C         142.2925  142.9586  162.7116 C.ar    1  UNL1        0.1964
     26 O         143.5430  142.3239  162.1793 O.2     1  UNL1       -0.4283
     27 C         144.6010  143.3839  162.0946 C.ar    1  UNL1        0.2849
     28 N         144.0043  144.6737  162.5745 N.ar    1  UNL1       -0.2085
     29 C         142.5776  144.4109  162.9558 C.ar    1  UNL1        0.1001
     30 C         141.6064  145.4227  163.4880 C.3     1  UNL1        0.0556
@<TRIPOS>BOND
     1    14    15    1
     2    15     8    1
     3     8     9   ar
     4     9    10   ar
     5    10    11   ar
     6    11     2    1
     7     2     3    1
     8     3     4    1
     9     4     5    1
    10     5     6    1
    11     6     1    1
    12     1    16    1
    13    16    17    1
    14    17    18    1
    15    18    19    1
    16    19    20   ar
    17    20    21   ar
    18    21    22   ar
    19    22    25    1
    20    25    26   ar
    21    26    27   ar
    22    27    28   ar
    23    28    29   ar
    24    29    30    1
    25    22    23   ar
    26    23    24    1
    27     6     7    1
    28    11    12   ar
    29    12    13   ar
    30    13     8   ar
    31     4     2    1
    32    23    19   ar
    33     7     2    1
    34    29    25   ar
@<TRIPOS>MOLECULE
*****
 30 34 0 0 0
SMALL
GASTEIGER

@<TRIPOS>ATOM
      1 C         141.8169  144.6436  161.9421 C.3     1  UNL1        0.0730
      2 C         143.9786  142.2658  164.1189 C.3     1  UNL1        0.0350
      3 C         145.3646  141.6922  164.1303 C.3     1  UNL1        0.0072
      4 C         144.9459  142.6200  163.0285 C.3     1  UNL1        0.0214
      5 C         144.2538  143.5538  162.0804 C.3     1  UNL1        0.0724
      6 N         142.8588  143.7768  162.5848 N.3     1  UNL1       -0.2724
      7 C         142.6888  142.9807  163.8446 C.3     1  UNL1        0.0761
      8 C         142.5992  140.2373  167.8915 C.ar    1  UNL1        0.1387
      9 C         142.7898  139.4378  166.6367 C.ar    1  UNL1        0.0366
     10 C         143.2496  140.1140  165.3792 C.ar    1  UNL1       -0.0011
     11 C         143.5188  141.5896  165.3764 C.ar    1  UNL1       -0.0213
     12 C         143.3282  142.3890  166.6312 C.ar    1  UNL1       -0.0011
     13 C         142.8684  141.7129  167.8887 C.ar    1  UNL1        0.0366
     14 C         142.7395  139.9444  170.4691 C.3     1  UNL1        0.2525
     15 O         142.1393  139.5611  169.1490 O.3     1  UNL1       -0.4714
     16 C         140.8112  145.3624  162.7917 C.3     1  UNL1        0.0294
     17 C         139.3651  145.3748  162.3935 C.3     1  UNL1        0.0666
     18 S         138.3744  144.5312  163.1396 S.3     1  UNL1       -0.0756
     19 C         138.8444  143.3506  163.9367 C.ar    1  UNL1        0.1933
     20 N         139.3347  143.3825  165.3539 N.ar    1  UNL1       -0.1220
     21 N         139.6999  141.9825  165.7497 N.ar    1  UNL1       -0.1250
     22 C         139.4353  141.0854  164.5770 C.ar    1  UNL1        0.2029
     23 N         138.9066  141.9309  163.4565 N.ar    1  UNL1       -0.2860
     24 C         138.5098  141.4425  162.0949 C.3     1  UNL1        0.1341
     25 C         139.6600  139.6030  164.5325 C.ar    1  UNL1        0.1964
     26 O         140.5883  138.8795  163.6026 O.2     1  UNL1       -0.4283
     27 C         140.4979  137.4131  163.9055 C.ar    1  UNL1        0.2849
     28 N         139.5138  137.2304  165.0226 N.ar    1  UNL1       -0.2085
     29 C         138.9959  138.5838  165.4101 C.ar    1  UNL1        0.1001
     30 C         137.9904  138.8681  166.4864 C.3     1  UNL1        0.0556
@<TRIPOS>BOND
     1    14    15    1
     2    15     8    1
     3     8     9   ar
     4     9    10   ar
     5    10    11   ar
     6    11     2    1
     7     2     3    1
     8     3     4    1
     9     4     5    1
    10     5     6    1
    11     6     1    1
    12     1    16    1
    13    16    17    1
    14    17    18    1
    15    18    19    1
    16    19    20   ar
    17    20    21   ar
    18    21    22   ar
    19    22    25    1
    20    25    26   ar
    21    26    27   ar
    22    27    28   ar
    23    28    29   ar
    24    29    30    1
    25    22    23   ar
    26    23    24    1
    27     6     7    1
    28    11    12   ar
    29    12    13   ar
    30    13     8   ar
    31     4     2    1
    32    23    19   ar
    33     7     2    1
    34    29    25   ar
@<TRIPOS>MOLECULE
*****
 30 34 0 0 0
SMALL
GASTEIGER

@<TRIPOS>ATOM
      1 C         144.4562  142.5460  163.9379 C.3     1  UNL1        0.0730
      2 C         143.2769  139.6016  166.1751 C.3     1  UNL1        0.0350
      3 C         143.5342  138.1327  166.3374 C.3     1  UNL1        0.0072
      4 C         144.2605  138.9089  165.2791 C.3     1  UNL1        0.0214
      5 C         144.8220  139.9276  164.3320 C.3     1  UNL1        0.0724
      6 N         144.1854  141.2499  164.6426 N.3     1  UNL1       -0.2724
      7 C         143.2305  141.0484  165.7817 C.3     1  UNL1        0.0761
      8 C         140.2508  139.9183  169.4906 C.ar    1  UNL1        0.1387
      9 C         139.8091  140.0143  168.0603 C.ar    1  UNL1        0.0366
     10 C         140.8178  139.9087  166.9552 C.ar    1  UNL1       -0.0011
     11 C         142.2682  139.7072  167.2803 C.ar    1  UNL1       -0.0213
     12 C         142.7099  139.6112  168.7105 C.ar    1  UNL1       -0.0011
     13 C         141.7012  139.7168  169.8157 C.ar    1  UNL1        0.0366
     14 C         137.7878  139.7954  170.3082 C.3     1  UNL1        0.2525
     15 O         139.2421  140.0239  170.5957 O.3     1  UNL1       -0.4714
     16 C         143.9759  143.8371  164.5316 C.3     1  UNL1        0.0294
     17 C         143.4004  144.9017  163.6455 C.3     1  UNL1        0.0666
     18 S         141.9154  145.1035  163.5829 S.3     1  UNL1       -0.0756
     19 C         140.9907  143.9436  163.8061 C.ar    1  UNL1        0.1933
     20 N         140.1669  143.6967  165.0350 N.ar    1  UNL1       -0.1220
     21 N         139.3946  142.4275  164.8279 N.ar    1  UNL1       -0.1250
     22 C         139.7411  141.8902  163.4711 C.ar    1  UNL1        0.2029
     23 N         140.7276  142.8272  162.8395 N.ar    1  UNL1       -0.2860
     24 C         141.3430  142.6745  161.4801 C.3     1  UNL1        0.1341
     25 C         139.1968  140.6360  162.8540 C.ar    1  UNL1        0.1964
     26 O         137.8145  140.4536  162.3010 O.2     1  UNL1       -0.4283
     27 C         137.7026  139.0488  161.7868 C.ar    1  UNL1        0.2849
     28 N         139.0157  138.3632  162.0221 N.ar    1  UNL1       -0.2085
     29 C         139.9392  139.3441  162.6817 C.ar    1  UNL1        0.1001
     30 C         141.3564  139.0794  163.0961 C.3     1  UNL1        0.0556
@<TRIPOS>BOND
     1    14    15    1
     2    15     8    1
     3     8     9   ar
     4     9    10   ar
     5    10    11   ar
     6    11     2    1
     7     2     3    1
     8     3     4    1
     9     4     5    1
    10     5     6    1
    11     6     1    1
    12     1    16    1
    13    16    17    1
    14    17    18    1
    15    18    19    1
    16    19    20   ar
    17    20    21   ar
    18    21    22   ar
    19    22    25    1
    20    25    26   ar
    21    26    27   ar
    22    27    28   ar
    23    28    29   ar
    24    29    30    1
    25    22    23   ar
    26    23    24    1
    27     6     7    1
    28    11    12   ar
    29    12    13   ar
    30    13     8   ar
    31     4     2    1
    32    23    19   ar
    33     7     2    1
    34    29    25   ar
@<TRIPOS>MOLECULE
*****
 30 34 0 0 0
SMALL
GASTEIGER

@<TRIPOS>ATOM
      1 C         140.5314  145.0267  162.8634 C.3     1  UNL1        0.0730
      2 C         143.3350  143.0315  164.6592 C.3     1  UNL1        0.0350
      3 C         144.8296  142.9079  164.6300 C.3     1  UNL1        0.0072
      4 C         144.1377  143.8620  163.7022 C.3     1  UNL1        0.0214
      5 C         143.1852  144.7105  162.9130 C.3     1  UNL1        0.0724
      6 N         141.7937  144.4044  163.3822 N.3     1  UNL1       -0.2724
      7 C         141.8863  143.3667  164.4615 C.3     1  UNL1        0.0761
      8 C         142.6753  139.9961  167.9151 C.ar    1  UNL1        0.1387
      9 C         142.7534  139.5554  166.4835 C.ar    1  UNL1        0.0366
     10 C         142.9733  140.5672  165.3982 C.ar    1  UNL1       -0.0011
     11 C         143.1151  142.0197  165.7445 C.ar    1  UNL1       -0.0213
     12 C         143.0371  142.4605  167.1761 C.ar    1  UNL1       -0.0011
     13 C         142.8172  141.4487  168.2614 C.ar    1  UNL1        0.0366
     14 C         141.7084  139.3680  170.2433 C.3     1  UNL1        0.2525
     15 O         142.4554  138.9843  169.0004 O.3     1  UNL1       -0.4714
     16 C         140.4644  145.5182  161.4478 C.3     1  UNL1        0.0294
     17 C         140.7706  144.5845  160.3145 C.3     1  UNL1        0.0666
     18 S         139.7889  143.5149  159.9378 S.3     1  UNL1       -0.0756
     19 C         139.0979  142.7208  161.0065 C.ar    1  UNL1        0.1933
     20 N         137.6853  142.9127  161.4731 N.ar    1  UNL1       -0.1220
     21 N         137.4126  141.9060  162.5512 N.ar    1  UNL1       -0.1250
     22 C         138.6566  141.0921  162.7509 C.ar    1  UNL1        0.2029
     23 N         139.6982  141.5957  161.7962 N.ar    1  UNL1       -0.2860
     24 C         141.0949  141.0669  161.6558 C.3     1  UNL1        0.1341
     25 C         138.8288  139.9713  163.7328 C.ar    1  UNL1        0.1964
     26 O         138.6980  138.5076  163.4319 O.2     1  UNL1       -0.4283
     27 C         138.9505  137.7491  164.7012 C.ar    1  UNL1        0.2849
     28 N         139.2373  138.7440  165.7864 N.ar    1  UNL1       -0.2085
     29 C         139.1621  140.1174  165.1880 C.ar    1  UNL1        0.1001
     30 C         139.3816  141.4100  165.9168 C.3     1  UNL1        0.0556
@<TRIPOS>BOND
     1    14    15    1
     2    15     8    1
     3     8     9   ar
     4     9    10   ar
     5    10    11   ar
     6    11     2    1
     7     2     3    1
     8     3     4    1
     9     4     5    1
    10     5     6    1
    11     6     1    1
    12     1    16    1
    13    16    17    1
    14    17    18    1
    15    18    19    1
    16    19    20   ar
    17    20    21   ar
    18    21    22   ar
    19    22    25    1
    20    25    26   ar
    21    26    27   ar
    22    27    28   ar
    23    28    29   ar
    24    29    30    1
    25    22    23   ar
    26    23    24    1
    27     6     7    1
    28    11    12   ar
    29    12    13   ar
    30    13     8   ar
    31     4     2    1
    32    23    19   ar
    33     7     2    1
    34    29    25   ar
@<TRIPOS>MOLECULE
*****
 30 34 0 0 0
SMALL
GASTEIGER

@<TRIPOS>ATOM
      1 C         139.0670  144.7170  164.1675 C.3     1  UNL1        0.0730
      2 C         139.2370  141.1100  165.5909 C.3     1  UNL1        0.0350
      3 C         138.5201  139.8010  165.4399 C.3     1  UNL1        0.0072
      4 C         138.0815  140.9928  164.6417 C.3     1  UNL1        0.0214
      5 C         137.8772  142.3297  163.9929 C.3     1  UNL1        0.0724
      6 N         138.9064  143.2732  164.5412 N.3     1  UNL1       -0.2724
      7 C         139.7468  142.5193  165.5288 C.3     1  UNL1        0.0761
      8 C         142.2078  139.6694  168.6486 C.ar    1  UNL1        0.1387
      9 C         142.6058  139.7711  167.2060 C.ar    1  UNL1        0.0366
     10 C         141.6155  140.2513  166.1868 C.ar    1  UNL1       -0.0011
     11 C         140.2272  140.6298  166.6101 C.ar    1  UNL1       -0.0213
     12 C         139.8292  140.5281  168.0527 C.ar    1  UNL1       -0.0011
     13 C         140.8194  140.0479  169.0720 C.ar    1  UNL1        0.0366
     14 C         142.9577  137.9014  170.3983 C.3     1  UNL1        0.2525
     15 O         143.1980  139.1892  169.6678 O.3     1  UNL1       -0.4714
     16 C         138.7680  145.1672  162.7682 C.3     1  UNL1        0.0294
     17 C         139.8856  145.5895  161.8613 C.3     1  UNL1        0.0666
     18 S         140.2831  144.7197  160.7058 S.3     1  UNL1       -0.0756
     19 C         139.9561  143.2558  160.7215 C.ar    1  UNL1        0.1933
     20 N         138.8896  142.5819  159.9102 N.ar    1  UNL1       -0.1220
     21 N         138.9126  141.1184  160.2386 N.ar    1  UNL1       -0.1250
     22 C         139.9934  140.8879  161.2529 C.ar    1  UNL1        0.2029
     23 N         140.6383  142.2089  161.5513 N.ar    1  UNL1       -0.2860
     24 C         141.7673  142.4420  162.5111 C.3     1  UNL1        0.1341
     25 C         140.3641  139.5682  161.8618 C.ar    1  UNL1        0.1964
     26 O         141.7396  139.1502  162.2902 O.2     1  UNL1       -0.4283
     27 C         141.6501  137.7584  162.8424 C.ar    1  UNL1        0.2849
     28 N         140.2195  137.3162  162.7553 N.ar    1  UNL1       -0.2085
     29 C         139.4247  138.4347  162.1492 C.ar    1  UNL1        0.1001
     30 C         137.9494  138.4220  161.8781 C.3     1  UNL1        0.0556
@<TRIPOS>BOND
     1    14    15    1
     2    15     8    1
     3     8     9   ar
     4     9    10   ar
     5    10    11   ar
     6    11     2    1
     7     2     3    1
     8     3     4    1
     9     4     5    1
    10     5     6    1
    11     6     1    1
    12     1    16    1
    13    16    17    1
    14    17    18    1
    15    18    19    1
    16    19    20   ar
    17    20    21   ar
    18    21    22   ar
    19    22    25    1
    20    25    26   ar
    21    26    27   ar
    22    27    28   ar
    23    28    29   ar
    24    29    30    1
    25    22    23   ar
    26    23    24    1
    27     6     7    1
    28    11    12   ar
    29    12    13   ar
    30    13     8   ar
    31     4     2    1
    32    23    19   ar
    33     7     2    1
    34    29    25   ar
@<TRIPOS>MOLECULE
*****
 30 34 0 0 0
SMALL
GASTEIGER

@<TRIPOS>ATOM
      1 C         139.1887  144.7318  164.0677 C.3     1  UNL1        0.0730
      2 C         139.2336  141.1831  165.6394 C.3     1  UNL1        0.0350
      3 C         138.4694  139.8959  165.5445 C.3     1  UNL1        0.0072
      4 C         138.0711  141.0686  164.6984 C.3     1  UNL1        0.0214
      5 C         137.9128  142.3840  163.9950 C.3     1  UNL1        0.0724
      6 N         138.9775  143.3115  164.5014 N.3     1  UNL1       -0.2724
      7 C         139.7938  142.5693  165.5176 C.3     1  UNL1        0.0761
      8 C         142.1618  139.7638  168.7476 C.ar    1  UNL1        0.1387
      9 C         142.5970  139.9129  167.3199 C.ar    1  UNL1        0.0366
     10 C         141.6209  140.3860  166.2838 C.ar    1  UNL1       -0.0011
     11 C         140.2097  140.7100  166.6754 C.ar    1  UNL1       -0.0213
     12 C         139.7745  140.5609  168.1031 C.ar    1  UNL1       -0.0011
     13 C         140.7506  140.0878  169.1392 C.ar    1  UNL1        0.0366
     14 C         143.0306  137.9000  170.3355 C.3     1  UNL1        0.2525
     15 O         143.1378  139.2906  169.7837 O.3     1  UNL1       -0.4714
     16 C         138.7692  145.1670  162.6949 C.3     1  UNL1        0.0294
     17 C         139.7256  145.9264  161.8239 C.3     1  UNL1        0.0666
     18 S         140.7131  145.1863  160.9713 S.3     1  UNL1       -0.0756
     19 C         141.7644  144.3299  161.6128 C.ar    1  UNL1        0.1933
     20 N         143.0912  144.8016  162.1295 N.ar    1  UNL1       -0.1220
     21 N         143.8203  143.6147  162.6862 N.ar    1  UNL1       -0.1250
     22 C         142.9440  142.4096  162.5135 C.ar    1  UNL1        0.2029
     23 N         141.6734  142.8516  161.8501 N.ar    1  UNL1       -0.2860
     24 C         140.5151  141.9701  161.4877 C.3     1  UNL1        0.1341
     25 C         143.2794  141.0085  162.9309 C.ar    1  UNL1        0.1964
     26 O         142.3829  139.8125  162.8051 O.2     1  UNL1       -0.4283
     27 C         143.1196  138.6221  163.3439 C.ar    1  UNL1        0.2849
     28 N         144.4714  139.0824  163.8027 N.ar    1  UNL1       -0.2085
     29 C         144.5702  140.5573  163.5475 C.ar    1  UNL1        0.1001
     30 C         145.7524  141.4280  163.8550 C.3     1  UNL1        0.0556
@<TRIPOS>BOND
     1    14    15    1
     2    15     8    1
     3     8     9   ar
     4     9    10   ar
     5    10    11   ar
     6    11     2    1
     7     2     3    1
     8     3     4    1
     9     4     5    1
    10     5     6    1
    11     6     1    1
    12     1    16    1
    13    16    17    1
    14    17    18    1
    15    18    19    1
    16    19    20   ar
    17    20    21   ar
    18    21    22   ar
    19    22    25    1
    20    25    26   ar
    21    26    27   ar
    22    27    28   ar
    23    28    29   ar
    24    29    30    1
    25    22    23   ar
    26    23    24    1
    27     6     7    1
    28    11    12   ar
    29    12    13   ar
    30    13     8   ar
    31     4     2    1
    32    23    19   ar
    33     7     2    1
    34    29    25   ar
@<TRIPOS>MOLECULE
*****
 30 34 0 0 0
SMALL
GASTEIGER

@<TRIPOS>ATOM
      1 C         140.6761  137.8726  162.1337 C.3     1  UNL1        0.0730
      2 C         143.4102  139.4282  164.4076 C.3     1  UNL1        0.0350
      3 C         144.8906  139.6690  164.3911 C.3     1  UNL1        0.0072
      4 C         144.2272  138.9960  163.2263 C.3     1  UNL1        0.0214
      5 C         143.3025  138.3606  162.2307 C.3     1  UNL1        0.0724
      6 N         141.9139  138.4002  162.7967 N.3     1  UNL1       -0.2724
      7 C         141.9805  139.0600  164.1421 C.3     1  UNL1        0.0761
      8 C         142.6813  141.2566  168.4543 C.ar    1  UNL1        0.1387
      9 C         142.6488  139.7663  168.2878 C.ar    1  UNL1        0.0366
     10 C         142.8917  139.1568  166.9389 C.ar    1  UNL1       -0.0011
     11 C         143.1672  140.0377  165.7565 C.ar    1  UNL1       -0.0213
     12 C         143.1998  141.5280  165.9230 C.ar    1  UNL1       -0.0011
     13 C         142.9568  142.1375  167.2719 C.ar    1  UNL1        0.0366
     14 C         141.6536  143.1389  169.9208 C.3     1  UNL1        0.2525
     15 O         142.4384  141.8661  169.8032 O.3     1  UNL1       -0.4714
     16 C         139.4297  137.6528  162.9388 C.3     1  UNL1        0.0294
     17 C         138.2939  138.6280  162.8440 C.3     1  UNL1        0.0666
     18 S         137.9850  139.2947  161.5364 S.3     1  UNL1       -0.0756
     19 C         138.2196  140.7670  161.3712 C.ar    1  UNL1        0.1933
     20 N         137.4654  141.8631  162.0640 N.ar    1  UNL1       -0.1220
     21 N         138.0292  143.1752  161.6053 N.ar    1  UNL1       -0.1250
     22 C         139.1318  142.8901  160.6290 C.ar    1  UNL1        0.2029
     23 N         139.2495  141.4017  160.4844 N.ar    1  UNL1       -0.2860
     24 C         140.2256  140.6756  159.6070 C.3     1  UNL1        0.1341
     25 C         139.9697  143.9136  159.9216 C.ar    1  UNL1        0.1964
     26 O         139.5948  144.6454  158.6671 O.2     1  UNL1       -0.4283
     27 C         140.7230  145.5691  158.3146 C.ar    1  UNL1        0.2849
     28 N         141.7949  145.4082  159.3514 N.ar    1  UNL1       -0.2085
     29 C         141.3294  144.3850  160.3446 C.ar    1  UNL1        0.1001
     30 C         142.0901  143.9157  161.5493 C.3     1  UNL1        0.0556
@<TRIPOS>BOND
     1    14    15    1
     2    15     8    1
     3     8     9   ar
     4     9    10   ar
     5    10    11   ar
     6    11     2    1
     7     2     3    1
     8     3     4    1
     9     4     5    1
    10     5     6    1
    11     6     1    1
    12     1    16    1
    13    16    17    1
    14    17    18    1
    15    18    19    1
    16    19    20   ar
    17    20    21   ar
    18    21    22   ar
    19    22    25    1
    20    25    26   ar
    21    26    27   ar
    22    27    28   ar
    23    28    29   ar
    24    29    30    1
    25    22    23   ar
    26    23    24    1
    27     6     7    1
    28    11    12   ar
    29    12    13   ar
    30    13     8   ar
    31     4     2    1
    32    23    19   ar
    33     7     2    1
    34    29    25   ar
