@<TRIPOS>MOLECULE
*****
 25 28 0 0 0
SMALL
GASTEIGER

@<TRIPOS>ATOM
      1 C         139.1703  138.3237  164.6587 C.ar    1  UNL1        0.1504
      2 C         138.7044  138.9086  163.3583 C.ar    1  UNL1        0.0408
      3 C         139.4625  138.6271  162.0950 C.ar    1  UNL1        0.0400
      4 C         140.6864  137.7606  162.1320 C.ar    1  UNL1        0.1388
      5 C         141.1522  137.1757  163.4323 C.ar    1  UNL1        0.0400
      6 C         140.3942  137.4573  164.6956 C.ar    1  UNL1        0.0408
      7 O         138.4123  138.6053  165.9221 O.3     1  UNL1       -0.4092
      8 C         141.0253  143.1615  169.6660 C.ar    1  UNL1        0.0018
      9 C         140.5168  142.2925  170.7779 C.ar    1  UNL1        0.0032
     10 C         139.7843  141.0223  170.4620 C.ar    1  UNL1        0.0392
     11 C         139.5602  140.6210  169.0341 C.ar    1  UNL1        0.1678
     12 O         138.8778  139.4346  168.4202 O.2     1  UNL1       -0.4076
     13 C         138.9646  139.5704  166.9289 C.ar    1  UNL1        0.4022
     14 N         139.7006  140.8406  166.6211 N.ar    1  UNL1       -0.1740
     15 C         140.0687  141.4899  167.9223 C.ar    1  UNL1        0.1221
     16 C         140.8013  142.7602  168.2382 C.ar    1  UNL1        0.0224
     17 O         141.4444  137.4791  160.8686 O.3     1  UNL1       -0.4740
     18 C         142.8741  137.9143  160.7389 C.3     1  UNL1        0.2226
     19 C         143.2138  139.3751  160.7122 C.3     1  UNL1        0.1200
     20 N         144.0088  139.9808  161.8308 N.3     1  UNL1       -0.2696
     21 C         144.5715  141.3639  161.6877 C.3     1  UNL1        0.0722
     22 C         145.3665  141.9696  162.8062 C.3     1  UNL1        0.0174
     23 C         145.5989  141.1922  164.0678 C.3     1  UNL1        0.0029
     24 C         145.0362  139.8091  164.2109 C.3     1  UNL1        0.0174
     25 C         144.2412  139.2034  163.0924 C.3     1  UNL1        0.0722
@<TRIPOS>BOND
     1     8     9   ar
     2     9    10   ar
     3    10    11   ar
     4    11    12   ar
     5    12    13   ar
     6    13     7    1
     7     7     1    1
     8     1     2   ar
     9     2     3   ar
    10     3     4   ar
    11     4    17    1
    12    17    18    1
    13    18    19    1
    14    19    20    1
    15    20    21    1
    16    21    22    1
    17    22    23    1
    18    23    24    1
    19    24    25    1
    20     4     5   ar
    21     5     6   ar
    22    13    14   ar
    23    14    15   ar
    24    15    16   ar
    25    16     8   ar
    26    15    11   ar
    27     6     1   ar
    28    25    20    1
@<TRIPOS>MOLECULE
*****
 25 28 0 0 0
SMALL
GASTEIGER

@<TRIPOS>ATOM
      1 C         141.7501  138.0590  164.5650 C.ar    1  UNL1        0.1504
      2 C         142.2021  138.4449  163.1877 C.ar    1  UNL1        0.0408
      3 C         141.2357  138.4003  162.0413 C.ar    1  UNL1        0.0400
      4 C         139.8175  137.9697  162.2722 C.ar    1  UNL1        0.1388
      5 C         139.3657  137.5837  163.6495 C.ar    1  UNL1        0.0400
      6 C         140.3320  137.6284  164.7958 C.ar    1  UNL1        0.0408
      7 O         142.7165  138.1037  165.7114 O.3     1  UNL1       -0.4092
      8 C         141.7035  143.0000  169.7863 C.ar    1  UNL1        0.0018
      9 C         142.4533  142.1257  170.7471 C.ar    1  UNL1        0.0032
     10 C         142.9576  140.7843  170.3039 C.ar    1  UNL1        0.0392
     11 C         142.7121  140.3173  168.8998 C.ar    1  UNL1        0.1678
     12 O         143.0859  139.0541  168.1823 O.2     1  UNL1       -0.4076
     13 C         142.5671  139.1478  166.7780 C.ar    1  UNL1        0.4022
     14 N         141.8726  140.4688  166.6275 N.ar    1  UNL1       -0.1740
     15 C         141.9623  141.1916  167.9389 C.ar    1  UNL1        0.1221
     16 C         141.4580  142.5329  168.3822 C.ar    1  UNL1        0.0224
     17 O         138.8512  137.9250  161.1258 O.3     1  UNL1       -0.4740
     18 C         137.6590  138.8354  161.1139 C.3     1  UNL1        0.2226
     19 C         137.8316  140.2931  160.8051 C.3     1  UNL1        0.1200
     20 N         137.8594  141.2975  161.9188 N.3     1  UNL1       -0.2696
     21 C         138.0150  142.7569  161.6090 C.3     1  UNL1        0.0722
     22 C         138.0428  143.7613  162.7227 C.3     1  UNL1        0.0174
     23 C         137.9150  143.3063  164.1463 C.3     1  UNL1        0.0029
     24 C         137.7595  141.8470  164.4562 C.3     1  UNL1        0.0174
     25 C         137.7317  140.8425  163.3425 C.3     1  UNL1        0.0722
@<TRIPOS>BOND
     1     8     9   ar
     2     9    10   ar
     3    10    11   ar
     4    11    12   ar
     5    12    13   ar
     6    13     7    1
     7     7     1    1
     8     1     2   ar
     9     2     3   ar
    10     3     4   ar
    11     4    17    1
    12    17    18    1
    13    18    19    1
    14    19    20    1
    15    20    21    1
    16    21    22    1
    17    22    23    1
    18    23    24    1
    19    24    25    1
    20     4     5   ar
    21     5     6   ar
    22    13    14   ar
    23    14    15   ar
    24    15    16   ar
    25    16     8   ar
    26    15    11   ar
    27     6     1   ar
    28    25    20    1
@<TRIPOS>MOLECULE
*****
 25 28 0 0 0
SMALL
GASTEIGER

@<TRIPOS>ATOM
      1 C         143.3656  142.8130  164.3985 C.ar    1  UNL1        0.1504
      2 C         142.5442  142.0923  163.3708 C.ar    1  UNL1        0.0408
      3 C         142.0649  142.8193  162.1494 C.ar    1  UNL1        0.0400
      4 C         142.4070  144.2669  161.9557 C.ar    1  UNL1        0.1388
      5 C         143.2282  144.9875  162.9834 C.ar    1  UNL1        0.0400
      6 C         143.7076  144.2605  164.2048 C.ar    1  UNL1        0.0408
      7 O         143.8449  142.0860  165.6199 O.3     1  UNL1       -0.4092
      8 C         140.2182  141.1523  170.8716 C.ar    1  UNL1        0.0018
      9 C         139.3122  140.4471  169.9063 C.ar    1  UNL1        0.0032
     10 C         139.6865  140.3553  168.4566 C.ar    1  UNL1        0.0392
     11 C         140.9667  140.9687  167.9722 C.ar    1  UNL1        0.1678
     12 O         141.5952  141.0372  166.6120 O.2     1  UNL1       -0.4076
     13 C         142.8896  141.7848  166.7366 C.ar    1  UNL1        0.4022
     14 N         143.0612  142.1784  168.1738 N.ar    1  UNL1       -0.1740
     15 C         141.8727  141.6739  168.9375 C.ar    1  UNL1        0.1221
     16 C         141.4984  141.7658  170.3871 C.ar    1  UNL1        0.0224
     17 O         141.9277  144.9939  160.7343 O.3     1  UNL1       -0.4740
     18 C         140.4954  145.4282  160.6338 C.3     1  UNL1        0.2226
     19 C         139.7554  145.8629  161.8640 C.3     1  UNL1        0.1200
     20 N         139.2110  144.8373  162.8135 N.3     1  UNL1       -0.2696
     21 C         139.6613  144.8260  164.2444 C.3     1  UNL1        0.0722
     22 C         139.1169  143.8003  165.1939 C.3     1  UNL1        0.0174
     23 C         138.1222  142.7859  164.7126 C.3     1  UNL1        0.0029
     24 C         137.6720  142.7971  163.2819 C.3     1  UNL1        0.0174
     25 C         138.2164  143.8228  162.3323 C.3     1  UNL1        0.0722
@<TRIPOS>BOND
     1     8     9   ar
     2     9    10   ar
     3    10    11   ar
     4    11    12   ar
     5    12    13   ar
     6    13     7    1
     7     7     1    1
     8     1     2   ar
     9     2     3   ar
    10     3     4   ar
    11     4    17    1
    12    17    18    1
    13    18    19    1
    14    19    20    1
    15    20    21    1
    16    21    22    1
    17    22    23    1
    18    23    24    1
    19    24    25    1
    20     4     5   ar
    21     5     6   ar
    22    13    14   ar
    23    14    15   ar
    24    15    16   ar
    25    16     8   ar
    26    15    11   ar
    27     6     1   ar
    28    25    20    1
@<TRIPOS>MOLECULE
*****
 25 28 0 0 0
SMALL
GASTEIGER

@<TRIPOS>ATOM
      1 C         138.1322  140.5417  164.5099 C.ar    1  UNL1        0.1504
      2 C         138.0252  142.0335  164.6244 C.ar    1  UNL1        0.0408
      3 C         138.0142  142.8818  163.3873 C.ar    1  UNL1        0.0400
      4 C         138.1102  142.2383  162.0358 C.ar    1  UNL1        0.1388
      5 C         138.2173  140.7465  161.9213 C.ar    1  UNL1        0.0400
      6 C         138.2283  139.8982  163.1583 C.ar    1  UNL1        0.0408
      7 O         138.1432  139.6934  165.7469 O.3     1  UNL1       -0.4092
      8 C         142.1120  140.4191  170.7794 C.ar    1  UNL1        0.0018
      9 C         143.0688  140.9047  169.7313 C.ar    1  UNL1        0.0032
     10 C         142.6455  140.9511  168.2930 C.ar    1  UNL1        0.0392
     11 C         141.2653  140.5120  167.9029 C.ar    1  UNL1        0.1678
     12 O         140.5706  140.4464  166.5751 O.2     1  UNL1       -0.4076
     13 C         139.1845  139.9202  166.8026 C.ar    1  UNL1        0.4022
     14 N         139.0224  139.6606  168.2710 N.ar    1  UNL1       -0.1740
     15 C         140.3085  140.0263  168.9510 C.ar    1  UNL1        0.1221
     16 C         140.7319  139.9799  170.3893 C.ar    1  UNL1        0.0224
     17 O         138.0993  143.0866  160.7987 O.3     1  UNL1       -0.4740
     18 C         139.3372  143.2056  159.9599 C.3     1  UNL1        0.2226
     19 C         140.2105  144.4192  160.0797 C.3     1  UNL1        0.1200
     20 N         141.1655  144.5454  161.2295 N.3     1  UNL1       -0.2696
     21 C         142.5156  143.8957  161.1579 C.3     1  UNL1        0.0722
     22 C         143.4706  144.0219  162.3076 C.3     1  UNL1        0.0174
     23 C         143.0756  144.7978  163.5290 C.3     1  UNL1        0.0029
     24 C         141.7256  145.4476  163.6007 C.3     1  UNL1        0.0174
     25 C         140.7705  145.3214  162.4509 C.3     1  UNL1        0.0722
@<TRIPOS>BOND
     1     8     9   ar
     2     9    10   ar
     3    10    11   ar
     4    11    12   ar
     5    12    13   ar
     6    13     7    1
     7     7     1    1
     8     1     2   ar
     9     2     3   ar
    10     3     4   ar
    11     4    17    1
    12    17    18    1
    13    18    19    1
    14    19    20    1
    15    20    21    1
    16    21    22    1
    17    22    23    1
    18    23    24    1
    19    24    25    1
    20     4     5   ar
    21     5     6   ar
    22    13    14   ar
    23    14    15   ar
    24    15    16   ar
    25    16     8   ar
    26    15    11   ar
    27     6     1   ar
    28    25    20    1
@<TRIPOS>MOLECULE
*****
 25 28 0 0 0
SMALL
GASTEIGER

@<TRIPOS>ATOM
      1 C         138.4707  139.0206  165.7147 C.ar    1  UNL1        0.1504
      2 C         138.8682  137.7113  165.1000 C.ar    1  UNL1        0.0408
      3 C         138.8837  137.5573  163.6080 C.ar    1  UNL1        0.0400
      4 C         138.5017  138.7126  162.7308 C.ar    1  UNL1        0.1388
      5 C         138.1043  140.0218  163.3455 C.ar    1  UNL1        0.0400
      6 C         138.0888  140.1758  164.8375 C.ar    1  UNL1        0.0408
      7 O         138.4552  139.1746  167.2067 O.3     1  UNL1       -0.4092
      8 C         142.5782  142.6797  170.7167 C.ar    1  UNL1        0.0018
      9 C         143.4736  142.4965  169.5274 C.ar    1  UNL1        0.0032
     10 C         142.9945  141.7127  168.3415 C.ar    1  UNL1        0.0392
     11 C         141.6200  141.1121  168.3451 C.ar    1  UNL1        0.1678
     12 O         140.8789  140.2954  167.3284 O.2     1  UNL1       -0.4076
     13 C         139.5254  139.9739  167.8894 C.ar    1  UNL1        0.4022
     14 N         139.4300  140.5918  169.2528 N.ar    1  UNL1       -0.1740
     15 C         140.7246  141.2954  169.5344 C.ar    1  UNL1        0.1221
     16 C         141.2037  142.0791  170.7202 C.ar    1  UNL1        0.0224
     17 O         138.5172  138.5586  161.2388 O.3     1  UNL1       -0.4740
     18 C         139.8198  138.3796  160.5167 C.3     1  UNL1        0.2226
     19 C         140.9033  139.4072  160.6585 C.3     1  UNL1        0.1200
     20 N         141.6042  139.5815  161.9731 N.3     1  UNL1       -0.2696
     21 C         142.3320  138.4261  162.5941 C.3     1  UNL1        0.0722
     22 C         143.0329  138.6004  163.9087 C.3     1  UNL1        0.0174
     23 C         143.0063  139.9301  164.6024 C.3     1  UNL1        0.0029
     24 C         142.2786  141.0855  163.9815 C.3     1  UNL1        0.0174
     25 C         141.5776  140.9112  162.6668 C.3     1  UNL1        0.0722
@<TRIPOS>BOND
     1     8     9   ar
     2     9    10   ar
     3    10    11   ar
     4    11    12   ar
     5    12    13   ar
     6    13     7    1
     7     7     1    1
     8     1     2   ar
     9     2     3   ar
    10     3     4   ar
    11     4    17    1
    12    17    18    1
    13    18    19    1
    14    19    20    1
    15    20    21    1
    16    21    22    1
    17    22    23    1
    18    23    24    1
    19    24    25    1
    20     4     5   ar
    21     5     6   ar
    22    13    14   ar
    23    14    15   ar
    24    15    16   ar
    25    16     8   ar
    26    15    11   ar
    27     6     1   ar
    28    25    20    1
@<TRIPOS>MOLECULE
*****
 25 28 0 0 0
SMALL
GASTEIGER

@<TRIPOS>ATOM
      1 C         138.6214  141.3755  164.1567 C.ar    1  UNL1        0.1504
      2 C         137.8609  142.6565  163.9808 C.ar    1  UNL1        0.0408
      3 C         137.9972  143.4410  162.7096 C.ar    1  UNL1        0.0400
      4 C         138.8941  142.9446  161.6144 C.ar    1  UNL1        0.1388
      5 C         139.6545  141.6638  161.7904 C.ar    1  UNL1        0.0400
      6 C         139.5182  140.8792  163.0616 C.ar    1  UNL1        0.0408
      7 O         138.4851  140.5910  165.4279 O.3     1  UNL1       -0.4092
      8 C         143.2840  141.6225  169.6125 C.ar    1  UNL1        0.0018
      9 C         142.7040  140.4245  170.3041 C.ar    1  UNL1        0.0032
     10 C         141.4997  139.7379  169.7313 C.ar    1  UNL1        0.0392
     11 C         140.8754  140.2491  168.4669 C.ar    1  UNL1        0.1678
     12 O         139.6921  139.7826  167.6718 O.2     1  UNL1       -0.4076
     13 C         139.5408  140.6923  166.4887 C.ar    1  UNL1        0.4022
     14 N         140.6306  141.7210  166.5526 N.ar    1  UNL1       -0.1740
     15 C         141.4555  141.4470  167.7752 C.ar    1  UNL1        0.1221
     16 C         142.6598  142.1337  168.3480 C.ar    1  UNL1        0.0224
     17 O         139.0304  143.7292  160.3432 O.3     1  UNL1       -0.4740
     18 C         140.0908  144.7833  160.2225 C.3     1  UNL1        0.2226
     19 C         141.5374  144.3899  160.1746 C.3     1  UNL1        0.1200
     20 N         142.3411  144.3314  161.4398 N.3     1  UNL1       -0.2696
     21 C         141.8703  145.0630  162.6619 C.3     1  UNL1        0.0722
     22 C         142.6740  145.0045  163.9270 C.3     1  UNL1        0.0174
     23 C         143.9484  144.2146  163.9702 C.3     1  UNL1        0.0029
     24 C         144.4191  143.4830  162.7483 C.3     1  UNL1        0.0174
     25 C         143.6155  143.5414  161.4830 C.3     1  UNL1        0.0722
@<TRIPOS>BOND
     1     8     9   ar
     2     9    10   ar
     3    10    11   ar
     4    11    12   ar
     5    12    13   ar
     6    13     7    1
     7     7     1    1
     8     1     2   ar
     9     2     3   ar
    10     3     4   ar
    11     4    17    1
    12    17    18    1
    13    18    19    1
    14    19    20    1
    15    20    21    1
    16    21    22    1
    17    22    23    1
    18    23    24    1
    19    24    25    1
    20     4     5   ar
    21     5     6   ar
    22    13    14   ar
    23    14    15   ar
    24    15    16   ar
    25    16     8   ar
    26    15    11   ar
    27     6     1   ar
    28    25    20    1
@<TRIPOS>MOLECULE
*****
 25 28 0 0 0
SMALL
GASTEIGER

@<TRIPOS>ATOM
      1 C         144.0771  139.2982  164.2866 C.ar    1  UNL1        0.1504
      2 C         144.9146  140.5409  164.3548 C.ar    1  UNL1        0.0408
      3 C         145.1142  141.3790  163.1269 C.ar    1  UNL1        0.0400
      4 C         144.4764  140.9745  161.8308 C.ar    1  UNL1        0.1388
      5 C         143.6390  139.7319  161.7627 C.ar    1  UNL1        0.0400
      6 C         143.4394  138.8938  162.9906 C.ar    1  UNL1        0.0408
      7 O         143.8775  138.4601  165.5145 O.3     1  UNL1       -0.4092
      8 C         139.3199  140.5569  169.5687 C.ar    1  UNL1        0.0018
      9 C         140.3470  140.2335  170.6130 C.ar    1  UNL1        0.0032
     10 C         141.6805  139.6795  170.2072 C.ar    1  UNL1        0.0392
     11 C         141.9870  139.4488  168.7571 C.ar    1  UNL1        0.1678
     12 O         143.2049  138.9179  168.0607 O.2     1  UNL1       -0.4076
     13 C         142.9306  138.9132  166.5860 C.ar    1  UNL1        0.4022
     14 N         141.5431  139.4411  166.3710 N.ar    1  UNL1       -0.1740
     15 C         140.9600  139.7721  167.7128 C.ar    1  UNL1        0.1221
     16 C         139.6264  140.3262  168.1186 C.ar    1  UNL1        0.0224
     17 O         144.6761  141.8126  160.6030 O.3     1  UNL1       -0.4740
     18 C         143.5007  142.1802  159.7465 C.3     1  UNL1        0.2226
     19 C         142.4931  143.1745  160.2425 C.3     1  UNL1        0.1200
     20 N         142.2669  143.3417  161.7159 N.3     1  UNL1       -0.2696
     21 C         143.0304  144.3836  162.4785 C.3     1  UNL1        0.0722
     22 C         142.8041  144.5508  163.9519 C.3     1  UNL1        0.0174
     23 C         141.8144  143.6761  164.6627 C.3     1  UNL1        0.0029
     24 C         141.0509  142.6342  163.9002 C.3     1  UNL1        0.0174
     25 C         141.2771  142.4670  162.4267 C.3     1  UNL1        0.0722
@<TRIPOS>BOND
     1     8     9   ar
     2     9    10   ar
     3    10    11   ar
     4    11    12   ar
     5    12    13   ar
     6    13     7    1
     7     7     1    1
     8     1     2   ar
     9     2     3   ar
    10     3     4   ar
    11     4    17    1
    12    17    18    1
    13    18    19    1
    14    19    20    1
    15    20    21    1
    16    21    22    1
    17    22    23    1
    18    23    24    1
    19    24    25    1
    20     4     5   ar
    21     5     6   ar
    22    13    14   ar
    23    14    15   ar
    24    15    16   ar
    25    16     8   ar
    26    15    11   ar
    27     6     1   ar
    28    25    20    1
@<TRIPOS>MOLECULE
*****
 25 28 0 0 0
SMALL
GASTEIGER

@<TRIPOS>ATOM
      1 C         139.3201  142.9208  164.5332 C.ar    1  UNL1        0.1504
      2 C         140.1787  142.8753  163.3040 C.ar    1  UNL1        0.0408
      3 C         139.6667  142.2205  162.0554 C.ar    1  UNL1        0.0400
      4 C         138.2961  141.6112  162.0360 C.ar    1  UNL1        0.1388
      5 C         137.4376  141.6568  163.2651 C.ar    1  UNL1        0.0400
      6 C         137.9496  142.3116  164.5137 C.ar    1  UNL1        0.0408
      7 O         139.8322  143.5756  165.7818 O.3     1  UNL1       -0.4092
      8 C         142.1605  140.5299  170.9690 C.ar    1  UNL1        0.0018
      9 C         142.5469  139.4847  169.9649 C.ar    1  UNL1        0.0032
     10 C         142.2288  139.6856  168.5129 C.ar    1  UNL1        0.0392
     11 C         141.5243  140.9318  168.0649 C.ar    1  UNL1        0.1678
     12 O         141.0822  141.4034  166.7113 O.2     1  UNL1       -0.4076
     13 C         140.4226  142.7401  166.8789 C.ar    1  UNL1        0.4022
     14 N         140.4570  143.0947  168.3359 N.ar    1  UNL1       -0.1740
     15 C         141.1379  141.9770  169.0689 C.ar    1  UNL1        0.1221
     16 C         141.4560  141.7760  170.5210 C.ar    1  UNL1        0.0224
     17 O         137.7840  140.9564  160.7873 O.3     1  UNL1       -0.4740
     18 C         137.6592  139.4630  160.7207 C.3     1  UNL1        0.2226
     19 C         138.8901  138.6060  160.7378 C.3     1  UNL1        0.1200
     20 N         139.5081  138.2070  162.0450 N.3     1  UNL1       -0.2696
     21 C         140.9686  137.8715  162.1128 C.3     1  UNL1        0.0722
     22 C         141.5865  137.4725  163.4201 C.3     1  UNL1        0.0174
     23 C         140.7440  137.4088  164.6595 C.3     1  UNL1        0.0029
     24 C         139.2836  137.7443  164.5917 C.3     1  UNL1        0.0174
     25 C         138.6656  138.1433  163.2844 C.3     1  UNL1        0.0722
@<TRIPOS>BOND
     1     8     9   ar
     2     9    10   ar
     3    10    11   ar
     4    11    12   ar
     5    12    13   ar
     6    13     7    1
     7     7     1    1
     8     1     2   ar
     9     2     3   ar
    10     3     4   ar
    11     4    17    1
    12    17    18    1
    13    18    19    1
    14    19    20    1
    15    20    21    1
    16    21    22    1
    17    22    23    1
    18    23    24    1
    19    24    25    1
    20     4     5   ar
    21     5     6   ar
    22    13    14   ar
    23    14    15   ar
    24    15    16   ar
    25    16     8   ar
    26    15    11   ar
    27     6     1   ar
    28    25    20    1
@<TRIPOS>MOLECULE
*****
 25 28 0 0 0
SMALL
GASTEIGER

@<TRIPOS>ATOM
      1 C         144.4954  143.0902  164.9193 C.ar    1  UNL1        0.1504
      2 C         145.2454  141.9203  164.3545 C.ar    1  UNL1        0.0408
      3 C         145.3979  141.7733  162.8695 C.ar    1  UNL1        0.0400
      4 C         144.8004  142.7963  161.9493 C.ar    1  UNL1        0.1388
      5 C         144.0504  143.9660  162.5141 C.ar    1  UNL1        0.0400
      6 C         143.8979  144.1130  163.9991 C.ar    1  UNL1        0.0408
      7 O         144.3429  143.2371  166.4042 O.3     1  UNL1       -0.4092
      8 C         139.2613  140.0625  168.7923 C.ar    1  UNL1        0.0018
      9 C         139.9135  140.3634  170.1091 C.ar    1  UNL1        0.0032
     10 C         141.2039  141.1270  170.1498 C.ar    1  UNL1        0.0392
     11 C         141.8421  141.5898  168.8737 C.ar    1  UNL1        0.1678
     12 O         143.1026  142.3562  168.6022 O.2     1  UNL1       -0.4076
     13 C         143.2294  142.5290  167.1175 C.ar    1  UNL1        0.4022
     14 N         142.0472  141.8694  166.4715 N.ar    1  UNL1       -0.1740
     15 C         141.1898  141.2889  167.5569 C.ar    1  UNL1        0.1221
     16 C         139.8994  140.5253  167.5162 C.ar    1  UNL1        0.0224
     17 O         144.9529  142.6493  160.4643 O.3     1  UNL1       -0.4740
     18 C         143.7389  142.6364  159.5833 C.3     1  UNL1        0.2226
     19 C         142.9291  141.3818  159.4406 C.3     1  UNL1        0.1200
     20 N         142.9531  140.3462  160.5254 N.3     1  UNL1       -0.2696
     21 C         143.8855  139.1755  160.4243 C.3     1  UNL1        0.0722
     22 C         143.9094  138.1399  161.5092 C.3     1  UNL1        0.0174
     23 C         143.0010  138.2749  162.6951 C.3     1  UNL1        0.0029
     24 C         142.0687  139.4455  162.7963 C.3     1  UNL1        0.0174
     25 C         142.0447  140.4812  161.7114 C.3     1  UNL1        0.0722
@<TRIPOS>BOND
     1     8     9   ar
     2     9    10   ar
     3    10    11   ar
     4    11    12   ar
     5    12    13   ar
     6    13     7    1
     7     7     1    1
     8     1     2   ar
     9     2     3   ar
    10     3     4   ar
    11     4    17    1
    12    17    18    1
    13    18    19    1
    14    19    20    1
    15    20    21    1
    16    21    22    1
    17    22    23    1
    18    23    24    1
    19    24    25    1
    20     4     5   ar
    21     5     6   ar
    22    13    14   ar
    23    14    15   ar
    24    15    16   ar
    25    16     8   ar
    26    15    11   ar
    27     6     1   ar
    28    25    20    1
