@<TRIPOS>MOLECULE
*****
 40 45 0 0 0
SMALL
GASTEIGER

@<TRIPOS>ATOM
      1 C         142.0761  138.7433  158.7680 C.3     1  UNL1        0.1031
      2 C         143.5807  142.2835  159.7444 C.ar    1  UNL1        0.0500
      3 C         144.4872  142.5380  158.5768 C.ar    1  UNL1        0.0147
      4 C         144.5900  141.5277  157.4729 C.ar    1  UNL1        0.0010
      5 C         143.7863  140.2628  157.5366 C.ar    1  UNL1       -0.0026
      6 C         142.8798  140.0082  158.7043 C.ar    1  UNL1       -0.0024
      7 C         142.7770  141.0186  159.8081 C.ar    1  UNL1        0.0120
      8 O         144.8667  141.7401  162.3998 O.2     1  UNL1       -0.2748
      9 C         144.1209  143.0222  162.1760 C.2     1  UNL1        0.2256
     10 N         143.4779  143.2939  160.8483 N.am    1  UNL1       -0.2839
     11 H         142.9884  144.1353  160.7015 H       1  UNL1        0.1549
     12 C         144.0180  144.0326  163.2799 C.3     1  UNL1        0.0768
     13 C         143.7158  145.4280  163.7398 C.3     1  UNL1        0.0096
     14 C         144.1422  144.3871  164.7321 C.3     1  UNL1        0.0096
     15 C         141.9764  137.8565  157.5624 C.ar    1  UNL1       -0.0036
     16 C         140.9144  138.1067  156.5330 C.ar    1  UNL1       -0.0025
     17 C         140.8147  137.2199  155.3274 C.ar    1  UNL1        0.0042
     18 C         141.7770  136.0828  155.1511 C.ar    1  UNL1        0.0536
     19 C         142.8389  135.8326  156.1804 C.ar    1  UNL1        0.0042
     20 C         142.9387  136.7194  157.3861 C.ar    1  UNL1       -0.0025
     21 C         141.6772  135.1960  153.9454 C.2     1  UNL1        0.2490
     22 O         141.8518  135.7744  152.5725 O.2     1  UNL1       -0.2699
     23 N         141.4030  133.7308  154.1127 N.am    1  UNL1       -0.2760
     24 C         141.1785  132.8207  155.2837 C.3     1  UNL1        0.0955
     25 C         141.0151  131.6587  154.3493 C.3     1  UNL1        0.0430
     26 C         141.2396  132.5689  153.1783 C.3     1  UNL1        0.0955
     27 N         141.3721  138.3653  160.0374 N.3     1  UNL1       -0.2644
     28 C         142.1552  137.8252  161.1972 C.3     1  UNL1        0.0901
     29 C         141.4511  137.4471  162.4666 C.3     1  UNL1        0.0899
     30 N         139.9639  137.6091  162.5762 N.3     1  UNL1       -0.2665
     31 C         139.1808  138.1492  161.4165 C.3     1  UNL1        0.0899
     32 C         139.8848  138.5273  160.1471 C.3     1  UNL1        0.0901
     33 C         139.2598  137.2310  163.8457 C.3     1  UNL1        0.0992
     34 C         139.3301  138.1355  165.0402 C.ar    1  UNL1       -0.0060
     35 C         140.5497  138.9773  165.2729 C.ar    1  UNL1       -0.0006
     36 C         140.6199  139.8818  166.4675 C.ar    1  UNL1        0.0294
     37 C         139.4706  139.9444  167.4294 C.ar    1  UNL1        0.1401
     38 F         139.5408  140.8488  168.6240 F       1  UNL1       -0.2042
     39 C         138.2511  139.1026  167.1967 C.ar    1  UNL1        0.0294
     40 C         138.1809  138.1981  166.0021 C.ar    1  UNL1       -0.0006
@<TRIPOS>BOND
     1     8     9    2
     2     9    10   am
     3    10     2    1
     4     2     3   ar
     5     3     4   ar
     6     4     5   ar
     7     5     6   ar
     8     6     1    1
     9     1    15    1
    10    15    16   ar
    11    16    17   ar
    12    17    18   ar
    13    18    21    1
    14    21    22    2
    15    21    23   am
    16    23    24    1
    17    24    25    1
    18    25    26    1
    19    18    19   ar
    20    19    20   ar
    21     1    27    1
    22    27    28    1
    23    28    29    1
    24    29    30    1
    25    30    33    1
    26    33    34    1
    27    34    35   ar
    28    35    36   ar
    29    36    37   ar
    30    37    38    1
    31    37    39   ar
    32    39    40   ar
    33    30    31    1
    34    31    32    1
    35     6     7   ar
    36     9    12    1
    37    12    13    1
    38    13    14    1
    39     7     2   ar
    40    14    12    1
    41    20    15   ar
    42    32    27    1
    43    26    23    1
    44    40    34   ar
    45    10    11    1
@<TRIPOS>MOLECULE
*****
 40 45 0 0 0
SMALL
GASTEIGER

@<TRIPOS>ATOM
      1 C         140.1068  139.1927  157.7269 C.3     1  UNL1        0.1031
      2 C         137.2739  141.3775  156.0090 C.ar    1  UNL1        0.0500
      3 C         138.0761  142.1317  154.9904 C.ar    1  UNL1        0.0147
      4 C         139.5552  141.9063  154.8841 C.ar    1  UNL1        0.0010
      5 C         140.2321  140.9266  155.7962 C.ar    1  UNL1       -0.0026
      6 C         139.4299  140.1724  156.8148 C.ar    1  UNL1       -0.0024
      7 C         137.9508  140.3978  156.9212 C.ar    1  UNL1        0.0120
      8 O         135.3664  139.1652  155.3253 O.2     1  UNL1       -0.2748
      9 C         134.8410  140.4967  155.7736 C.2     1  UNL1        0.2256
     10 N         135.7947  141.6028  156.1154 N.am    1  UNL1       -0.2839
     11 H         135.4498  142.4768  156.4096 H       1  UNL1        0.1549
     12 C         133.3618  140.7221  155.8800 C.3     1  UNL1        0.0768
     13 C         132.0334  140.3667  156.4792 C.3     1  UNL1        0.0096
     14 C         132.1282  141.4679  155.4651 C.3     1  UNL1        0.0096
     15 C         140.8061  137.9952  157.1552 C.ar    1  UNL1       -0.0036
     16 C         142.1985  137.6569  157.5989 C.ar    1  UNL1       -0.0025
     17 C         142.8977  136.4594  157.0272 C.ar    1  UNL1        0.0042
     18 C         142.2046  135.6000  156.0117 C.ar    1  UNL1        0.0536
     19 C         140.8123  135.9382  155.5680 C.ar    1  UNL1        0.0042
     20 C         140.1129  137.1358  156.1398 C.ar    1  UNL1       -0.0025
     21 C         142.9039  134.4024  155.4400 C.2     1  UNL1        0.2490
     22 O         142.7700  134.0815  153.9809 O.2     1  UNL1       -0.2699
     23 N         143.7371  133.5259  156.3274 N.am    1  UNL1       -0.2760
     24 C         144.0954  133.5260  157.7840 C.3     1  UNL1        0.0955
     25 C         144.9153  132.2863  157.5824 C.3     1  UNL1        0.0430
     26 C         144.5570  132.2861  156.1258 C.3     1  UNL1        0.0955
     27 N         140.0845  139.4106  159.2108 N.3     1  UNL1       -0.2644
     28 C         140.8635  140.5413  159.8147 C.3     1  UNL1        0.0901
     29 C         140.8411  140.7591  161.2987 C.3     1  UNL1        0.0899
     30 N         140.0398  139.8463  162.1787 N.3     1  UNL1       -0.2665
     31 C         139.2607  138.7156  161.5748 C.3     1  UNL1        0.0899
     32 C         139.2831  138.4977  160.0910 C.3     1  UNL1        0.0901
     33 C         140.0174  140.0641  163.6627 C.3     1  UNL1        0.0992
     34 C         139.6327  141.4032  164.2184 C.ar    1  UNL1       -0.0060
     35 C         140.6241  142.1967  165.0170 C.ar    1  UNL1       -0.0006
     36 C         140.2394  143.5358  165.5728 C.ar    1  UNL1        0.0294
     37 C         138.8633  144.0814  165.3299 C.ar    1  UNL1        0.1401
     38 F         138.4787  145.4205  165.8856 F       1  UNL1       -0.2042
     39 C         137.8721  143.2879  164.5313 C.ar    1  UNL1        0.0294
     40 C         138.2568  141.9488  163.9756 C.ar    1  UNL1       -0.0006
@<TRIPOS>BOND
     1     8     9    2
     2     9    10   am
     3    10     2    1
     4     2     3   ar
     5     3     4   ar
     6     4     5   ar
     7     5     6   ar
     8     6     1    1
     9     1    15    1
    10    15    16   ar
    11    16    17   ar
    12    17    18   ar
    13    18    21    1
    14    21    22    2
    15    21    23   am
    16    23    24    1
    17    24    25    1
    18    25    26    1
    19    18    19   ar
    20    19    20   ar
    21     1    27    1
    22    27    28    1
    23    28    29    1
    24    29    30    1
    25    30    33    1
    26    33    34    1
    27    34    35   ar
    28    35    36   ar
    29    36    37   ar
    30    37    38    1
    31    37    39   ar
    32    39    40   ar
    33    30    31    1
    34    31    32    1
    35     6     7   ar
    36     9    12    1
    37    12    13    1
    38    13    14    1
    39     7     2   ar
    40    14    12    1
    41    20    15   ar
    42    32    27    1
    43    26    23    1
    44    40    34   ar
    45    10    11    1
@<TRIPOS>MOLECULE
*****
 40 45 0 0 0
SMALL
GASTEIGER

@<TRIPOS>ATOM
      1 C         141.6074  139.3163  158.1388 C.3     1  UNL1        0.1031
      2 C         143.0927  136.2976  156.0337 C.ar    1  UNL1        0.0500
      3 C         142.4901  136.5676  154.6869 C.ar    1  UNL1        0.0147
      4 C         141.5933  137.7538  154.4907 C.ar    1  UNL1        0.0010
      5 C         141.2991  138.6701  155.6413 C.ar    1  UNL1       -0.0026
      6 C         141.9017  138.4001  156.9881 C.ar    1  UNL1       -0.0024
      7 C         142.7985  137.2138  157.1843 C.ar    1  UNL1        0.0120
      8 O         141.9506  133.5246  155.9563 O.2     1  UNL1       -0.2748
      9 C         143.4185  133.7248  156.1913 C.2     1  UNL1        0.2256
     10 N         143.9895  135.1113  156.2300 N.am    1  UNL1       -0.2839
     11 H         144.9529  135.2427  156.3842 H       1  UNL1        0.1549
     12 C         144.3153  132.5385  156.3875 C.3     1  UNL1        0.0768
     13 C         145.3856  131.8341  157.1674 C.3     1  UNL1        0.0096
     14 C         144.7984  131.1883  155.9476 C.3     1  UNL1        0.0096
     15 C         141.5372  140.7984  157.9184 C.ar    1  UNL1       -0.0036
     16 C         140.3344  141.5686  158.3765 C.ar    1  UNL1       -0.0025
     17 C         140.2642  143.0507  158.1562 C.ar    1  UNL1        0.0042
     18 C         141.3968  143.7625  157.4777 C.ar    1  UNL1        0.0536
     19 C         142.5997  142.9923  157.0195 C.ar    1  UNL1        0.0042
     20 C         142.6699  141.5102  157.2399 C.ar    1  UNL1       -0.0025
     21 C         141.3266  145.2446  157.2573 C.2     1  UNL1        0.2490
     22 O         142.3683  146.1422  157.8567 O.2     1  UNL1       -0.2699
     23 N         140.2147  145.8291  156.4375 N.am    1  UNL1       -0.2760
     24 C         139.0319  145.2709  155.7031 C.3     1  UNL1        0.0955
     25 C         138.6422  146.6557  155.2782 C.3     1  UNL1        0.0430
     26 C         139.8250  147.2139  156.0126 C.3     1  UNL1        0.0955
     27 N         141.3834  138.7506  159.5097 N.3     1  UNL1       -0.2644
     28 C         139.9874  138.5106  160.0032 C.3     1  UNL1        0.0901
     29 C         139.7634  137.9448  161.3742 C.3     1  UNL1        0.0899
     30 N         140.9354  137.6190  162.2518 N.3     1  UNL1       -0.2665
     31 C         142.3314  137.8589  161.7584 C.3     1  UNL1        0.0899
     32 C         142.5555  138.4247  160.3874 C.3     1  UNL1        0.0901
     33 C         140.7114  137.0532  163.6229 C.3     1  UNL1        0.0992
     34 C         140.3535  137.9630  164.7604 C.ar    1  UNL1       -0.0060
     35 C         138.9296  138.0626  165.2218 C.ar    1  UNL1       -0.0006
     36 C         138.5717  138.9725  166.3594 C.ar    1  UNL1        0.0294
     37 C         139.6377  139.7828  167.0355 C.ar    1  UNL1        0.1401
     38 F         139.2798  140.6927  168.1731 F       1  UNL1       -0.2042
     39 C         141.0615  139.6833  166.5741 C.ar    1  UNL1        0.0294
     40 C         141.4193  138.7734  165.4366 C.ar    1  UNL1       -0.0006
@<TRIPOS>BOND
     1     8     9    2
     2     9    10   am
     3    10     2    1
     4     2     3   ar
     5     3     4   ar
     6     4     5   ar
     7     5     6   ar
     8     6     1    1
     9     1    15    1
    10    15    16   ar
    11    16    17   ar
    12    17    18   ar
    13    18    21    1
    14    21    22    2
    15    21    23   am
    16    23    24    1
    17    24    25    1
    18    25    26    1
    19    18    19   ar
    20    19    20   ar
    21     1    27    1
    22    27    28    1
    23    28    29    1
    24    29    30    1
    25    30    33    1
    26    33    34    1
    27    34    35   ar
    28    35    36   ar
    29    36    37   ar
    30    37    38    1
    31    37    39   ar
    32    39    40   ar
    33    30    31    1
    34    31    32    1
    35     6     7   ar
    36     9    12    1
    37    12    13    1
    38    13    14    1
    39     7     2   ar
    40    14    12    1
    41    20    15   ar
    42    32    27    1
    43    26    23    1
    44    40    34   ar
    45    10    11    1
@<TRIPOS>MOLECULE
*****
 40 45 0 0 0
SMALL
GASTEIGER

@<TRIPOS>ATOM
      1 C         138.1168  142.1549  156.6441 C.3     1  UNL1        0.1031
      2 C         135.1685  139.9646  155.1407 C.ar    1  UNL1        0.0500
      3 C         135.9232  139.0949  154.1795 C.ar    1  UNL1        0.0147
      4 C         137.4091  139.2451  154.0399 C.ar    1  UNL1        0.0010
      5 C         138.1403  140.2651  154.8614 C.ar    1  UNL1       -0.0026
      6 C         137.3856  141.1349  155.8226 C.ar    1  UNL1       -0.0024
      7 C         135.8997  140.9846  155.9623 C.ar    1  UNL1        0.0120
      8 O         133.9953  138.9959  157.7263 O.2     1  UNL1       -0.2748
      9 C         133.0960  139.3300  156.5732 C.2     1  UNL1        0.2256
     10 N         133.6826  139.8144  155.2805 N.am    1  UNL1       -0.2839
     11 H         133.0923  140.0337  154.5236 H       1  UNL1        0.1549
     12 C         131.6100  139.1798  156.7129 C.3     1  UNL1        0.0768
     13 C         130.2667  139.7758  157.0131 C.3     1  UNL1        0.0096
     14 C         130.3797  138.3236  156.6548 C.3     1  UNL1        0.0096
     15 C         138.5941  143.4272  156.0090 C.ar    1  UNL1       -0.0036
     16 C         137.6050  144.4778  155.5990 C.ar    1  UNL1       -0.0025
     17 C         138.0822  145.7501  154.9639 C.ar    1  UNL1        0.0042
     18 C         139.5486  145.9719  154.7388 C.ar    1  UNL1        0.0536
     19 C         140.5376  144.9214  155.1489 C.ar    1  UNL1        0.0042
     20 C         140.0604  143.6490  155.7840 C.ar    1  UNL1       -0.0025
     21 C         140.0258  147.2443  154.1037 C.2     1  UNL1        0.2490
     22 O         140.9607  147.1929  152.9318 O.2     1  UNL1       -0.2699
     23 N         139.5681  148.5681  154.6404 N.am    1  UNL1       -0.2760
     24 C         138.6680  149.0057  155.7577 C.3     1  UNL1        0.0955
     25 C         138.9208  150.4402  155.3995 C.3     1  UNL1        0.0430
     26 C         139.8210  150.0026  154.2823 C.3     1  UNL1        0.0955
     27 N         138.3708  141.9026  158.1008 N.3     1  UNL1       -0.2644
     28 C         138.9912  142.9720  158.9501 C.3     1  UNL1        0.0901
     29 C         139.2452  142.7196  160.4068 C.3     1  UNL1        0.0899
     30 N         138.8786  141.3979  161.0141 N.3     1  UNL1       -0.2665
     31 C         138.2581  140.3286  160.1647 C.3     1  UNL1        0.0899
     32 C         138.0042  140.5809  158.7081 C.3     1  UNL1        0.0901
     33 C         139.1326  141.1456  162.4708 C.3     1  UNL1        0.0992
     34 C         138.9712  142.2581  163.4639 C.ar    1  UNL1       -0.0060
     35 C         140.1555  142.7417  164.2474 C.ar    1  UNL1       -0.0006
     36 C         139.9941  143.8541  165.2406 C.ar    1  UNL1        0.0294
     37 C         138.6485  144.4830  165.4502 C.ar    1  UNL1        0.1401
     38 F         138.4871  145.5955  166.4434 F       1  UNL1       -0.2042
     39 C         137.4643  143.9994  164.6668 C.ar    1  UNL1        0.0294
     40 C         137.6257  142.8869  163.6737 C.ar    1  UNL1       -0.0006
@<TRIPOS>BOND
     1     8     9    2
     2     9    10   am
     3    10     2    1
     4     2     3   ar
     5     3     4   ar
     6     4     5   ar
     7     5     6   ar
     8     6     1    1
     9     1    15    1
    10    15    16   ar
    11    16    17   ar
    12    17    18   ar
    13    18    21    1
    14    21    22    2
    15    21    23   am
    16    23    24    1
    17    24    25    1
    18    25    26    1
    19    18    19   ar
    20    19    20   ar
    21     1    27    1
    22    27    28    1
    23    28    29    1
    24    29    30    1
    25    30    33    1
    26    33    34    1
    27    34    35   ar
    28    35    36   ar
    29    36    37   ar
    30    37    38    1
    31    37    39   ar
    32    39    40   ar
    33    30    31    1
    34    31    32    1
    35     6     7   ar
    36     9    12    1
    37    12    13    1
    38    13    14    1
    39     7     2   ar
    40    14    12    1
    41    20    15   ar
    42    32    27    1
    43    26    23    1
    44    40    34   ar
    45    10    11    1
@<TRIPOS>MOLECULE
*****
 40 45 0 0 0
SMALL
GASTEIGER

@<TRIPOS>ATOM
      1 C         143.8303  142.5241  158.9966 C.3     1  UNL1        0.1031
      2 C         140.5619  144.4982  160.0785 C.ar    1  UNL1        0.0500
      3 C         140.4084  145.4456  158.9257 C.ar    1  UNL1        0.0147
      4 C         141.3954  145.4192  157.7966 C.ar    1  UNL1        0.0010
      5 C         142.5361  144.4453  157.8203 C.ar    1  UNL1       -0.0026
      6 C         142.6897  143.4979  158.9730 C.ar    1  UNL1       -0.0024
      7 C         141.7026  143.5243  160.1021 C.ar    1  UNL1        0.0120
      8 O         141.5231  144.3301  162.9154 O.2     1  UNL1       -0.2748
      9 C         140.0554  144.4405  162.6260 C.2     1  UNL1        0.2256
     10 N         139.5748  144.5246  161.2076 N.am    1  UNL1       -0.2839
     11 H         138.6115  144.5970  161.0178 H       1  UNL1        0.1549
     12 C         139.0683  144.4669  163.7552 C.3     1  UNL1        0.0768
     13 C         138.6813  144.9193  165.1320 C.3     1  UNL1        0.0096
     14 C         137.7456  144.0602  164.3342 C.3     1  UNL1        0.0096
     15 C         144.6830  142.3380  157.7766 C.ar    1  UNL1       -0.0036
     16 C         144.1136  141.6748  156.5576 C.ar    1  UNL1       -0.0025
     17 C         144.9663  141.4887  155.3377 C.ar    1  UNL1        0.0042
     18 C         146.3884  141.9659  155.3367 C.ar    1  UNL1        0.0536
     19 C         146.9578  142.6291  156.5556 C.ar    1  UNL1        0.0042
     20 C         146.1051  142.8152  157.7757 C.ar    1  UNL1       -0.0025
     21 C         147.2410  141.7798  154.1167 C.2     1  UNL1        0.2490
     22 O         146.6073  141.7401  152.7577 O.2     1  UNL1       -0.2699
     23 N         148.7274  141.6334  154.2557 N.am    1  UNL1       -0.2760
     24 C         149.6890  141.6221  155.4068 C.3     1  UNL1        0.0955
     25 C         150.8294  141.4264  154.4523 C.3     1  UNL1        0.0430
     26 C         149.8678  141.4377  153.3011 C.3     1  UNL1        0.0955
     27 N         144.1183  141.7363  160.2401 N.3     1  UNL1       -0.2644
     28 C         144.8859  142.3648  161.3652 C.3     1  UNL1        0.0901
     29 C         145.1739  141.5770  162.6088 C.3     1  UNL1        0.0899
     30 N         144.6943  140.1607  162.7272 N.3     1  UNL1       -0.2665
     31 C         143.9267  139.5322  161.6022 C.3     1  UNL1        0.0899
     32 C         143.6387  140.3200  160.3586 C.3     1  UNL1        0.0901
     33 C         144.9822  139.3728  163.9708 C.3     1  UNL1        0.0992
     34 C         144.0961  139.5176  165.1724 C.ar    1  UNL1       -0.0060
     35 C         143.3243  140.7859  165.3866 C.ar    1  UNL1       -0.0006
     36 C         142.4381  140.9307  166.5882 C.ar    1  UNL1        0.0294
     37 C         142.3238  139.8072  167.5755 C.ar    1  UNL1        0.1401
     38 F         141.4376  139.9520  168.7771 F       1  UNL1       -0.2042
     39 C         143.0956  138.5390  167.3613 C.ar    1  UNL1        0.0294
     40 C         143.9817  138.3942  166.1597 C.ar    1  UNL1       -0.0006
@<TRIPOS>BOND
     1     8     9    2
     2     9    10   am
     3    10     2    1
     4     2     3   ar
     5     3     4   ar
     6     4     5   ar
     7     5     6   ar
     8     6     1    1
     9     1    15    1
    10    15    16   ar
    11    16    17   ar
    12    17    18   ar
    13    18    21    1
    14    21    22    2
    15    21    23   am
    16    23    24    1
    17    24    25    1
    18    25    26    1
    19    18    19   ar
    20    19    20   ar
    21     1    27    1
    22    27    28    1
    23    28    29    1
    24    29    30    1
    25    30    33    1
    26    33    34    1
    27    34    35   ar
    28    35    36   ar
    29    36    37   ar
    30    37    38    1
    31    37    39   ar
    32    39    40   ar
    33    30    31    1
    34    31    32    1
    35     6     7   ar
    36     9    12    1
    37    12    13    1
    38    13    14    1
    39     7     2   ar
    40    14    12    1
    41    20    15   ar
    42    32    27    1
    43    26    23    1
    44    40    34   ar
    45    10    11    1
@<TRIPOS>MOLECULE
*****
 40 45 0 0 0
SMALL
GASTEIGER

@<TRIPOS>ATOM
      1 C         138.5758  142.3857  157.0467 C.3     1  UNL1        0.1031
      2 C         135.4294  140.4228  155.6335 C.ar    1  UNL1        0.0500
      3 C         136.1020  139.3580  154.8187 C.ar    1  UNL1        0.0147
      4 C         137.5992  139.3025  154.7466 C.ar    1  UNL1        0.0010
      5 C         138.4238  140.3117  155.4893 C.ar    1  UNL1       -0.0026
      6 C         137.7512  141.3765  156.3040 C.ar    1  UNL1       -0.0024
      7 C         136.2540  141.4320  156.3761 C.ar    1  UNL1        0.0120
      8 O         133.9901  139.1475  157.9361 O.2     1  UNL1       -0.2748
      9 C         133.2125  139.8407  156.8569 C.2     1  UNL1        0.2256
     10 N         133.9321  140.4783  155.7056 N.am    1  UNL1       -0.2839
     11 H         133.4217  140.9333  154.9973 H       1  UNL1        0.1549
     12 C         131.7152  139.8962  156.9290 C.3     1  UNL1        0.0768
     13 C         130.4033  140.3500  156.3609 C.3     1  UNL1        0.0096
     14 C         130.4339  139.5387  157.6221 C.3     1  UNL1        0.0096
     15 C         138.8357  143.7333  156.4415 C.ar    1  UNL1       -0.0036
     16 C         137.8340  144.3406  155.5045 C.ar    1  UNL1       -0.0025
     17 C         138.0940  145.6882  154.8994 C.ar    1  UNL1        0.0042
     18 C         139.3556  146.4287  155.2312 C.ar    1  UNL1        0.0536
     19 C         140.3573  145.8215  156.1681 C.ar    1  UNL1        0.0042
     20 C         140.0973  144.4737  156.7733 C.ar    1  UNL1       -0.0025
     21 C         139.6155  147.7764  154.6260 C.2     1  UNL1        0.2490
     22 O         140.3763  147.8860  153.3379 O.2     1  UNL1       -0.2699
     23 N         139.1146  149.0144  155.3088 N.am    1  UNL1       -0.2760
     24 C         138.3437  149.2949  156.5646 C.3     1  UNL1        0.0955
     25 C         138.4063  150.7653  156.2746 C.3     1  UNL1        0.0430
     26 C         139.1772  150.4848  155.0188 C.3     1  UNL1        0.0955
     27 N         139.1404  142.0473  158.3945 N.3     1  UNL1       -0.2644
     28 C         138.4641  142.5449  159.6374 C.3     1  UNL1        0.0901
     29 C         139.0288  142.2065  160.9853 C.3     1  UNL1        0.0899
     30 N         140.2697  141.3704  161.0901 N.3     1  UNL1       -0.2665
     31 C         140.9460  140.8727  159.8472 C.3     1  UNL1        0.0899
     32 C         140.3814  141.2111  158.4994 C.3     1  UNL1        0.0901
     33 C         140.8344  141.0319  162.4380 C.3     1  UNL1        0.0992
     34 C         140.1803  139.9786  163.2822 C.ar    1  UNL1       -0.0060
     35 C         139.8574  140.2628  164.7192 C.ar    1  UNL1       -0.0006
     36 C         139.2033  139.2095  165.5634 C.ar    1  UNL1        0.0294
     37 C         138.8721  137.8720  164.9706 C.ar    1  UNL1        0.1401
     38 F         138.2180  136.8186  165.8148 F       1  UNL1       -0.2042
     39 C         139.1951  137.5878  163.5336 C.ar    1  UNL1        0.0294
     40 C         139.8492  138.6411  162.6894 C.ar    1  UNL1       -0.0006
@<TRIPOS>BOND
     1     8     9    2
     2     9    10   am
     3    10     2    1
     4     2     3   ar
     5     3     4   ar
     6     4     5   ar
     7     5     6   ar
     8     6     1    1
     9     1    15    1
    10    15    16   ar
    11    16    17   ar
    12    17    18   ar
    13    18    21    1
    14    21    22    2
    15    21    23   am
    16    23    24    1
    17    24    25    1
    18    25    26    1
    19    18    19   ar
    20    19    20   ar
    21     1    27    1
    22    27    28    1
    23    28    29    1
    24    29    30    1
    25    30    33    1
    26    33    34    1
    27    34    35   ar
    28    35    36   ar
    29    36    37   ar
    30    37    38    1
    31    37    39   ar
    32    39    40   ar
    33    30    31    1
    34    31    32    1
    35     6     7   ar
    36     9    12    1
    37    12    13    1
    38    13    14    1
    39     7     2   ar
    40    14    12    1
    41    20    15   ar
    42    32    27    1
    43    26    23    1
    44    40    34   ar
    45    10    11    1
@<TRIPOS>MOLECULE
*****
 40 45 0 0 0
SMALL
GASTEIGER

@<TRIPOS>ATOM
      1 C         142.5439  139.2976  158.1905 C.3     1  UNL1        0.1031
      2 C         140.5220  136.7071  155.9654 C.ar    1  UNL1        0.0500
      3 C         139.3002  137.5115  155.6335 C.ar    1  UNL1        0.0147
      4 C         139.1596  138.9112  156.1540 C.ar    1  UNL1        0.0010
      5 C         140.2409  139.5066  157.0064 C.ar    1  UNL1       -0.0026
      6 C         141.4627  138.7022  157.3382 C.ar    1  UNL1       -0.0024
      7 C         141.6033  137.3025  156.8177 C.ar    1  UNL1        0.0120
      8 O         142.4776  136.1126  153.7693 O.2     1  UNL1       -0.2748
      9 C         141.6404  135.0101  154.3469 C.2     1  UNL1        0.2256
     10 N         140.6626  135.3073  155.4449 N.am    1  UNL1       -0.2839
     11 H         140.1132  134.5837  155.8239 H       1  UNL1        0.1549
     12 C         141.7810  133.6103  153.8264 C.3     1  UNL1        0.0768
     13 C         141.1623  132.3663  153.2610 C.3     1  UNL1        0.0096
     14 C         142.6433  132.4298  153.4902 C.3     1  UNL1        0.0096
     15 C         143.6611  140.0698  157.5537 C.ar    1  UNL1       -0.0036
     16 C         144.1847  141.3120  158.2118 C.ar    1  UNL1       -0.0025
     17 C         145.3019  142.0842  157.5751 C.ar    1  UNL1        0.0042
     18 C         145.8956  141.6143  156.2802 C.ar    1  UNL1        0.0536
     19 C         145.3722  140.3722  155.6221 C.ar    1  UNL1        0.0042
     20 C         144.2549  139.5999  156.2589 C.ar    1  UNL1       -0.0025
     21 C         147.0129  142.3865  155.6435 C.2     1  UNL1        0.2490
     22 O         148.4265  142.1719  156.0968 O.2     1  UNL1       -0.2699
     23 N         146.7165  143.3734  154.5535 N.am    1  UNL1       -0.2760
     24 C         145.4736  143.8437  153.8576 C.3     1  UNL1        0.0955
     25 C         146.2972  144.7691  153.0120 C.3     1  UNL1        0.0430
     26 C         147.5401  144.2989  153.7078 C.3     1  UNL1        0.0955
     27 N         142.5080  139.1208  159.6796 N.3     1  UNL1       -0.2644
     28 C         143.5027  138.2220  160.3524 C.3     1  UNL1        0.0901
     29 C         143.4667  138.0452  161.8415 C.3     1  UNL1        0.0899
     30 N         142.4360  138.7672  162.6578 N.3     1  UNL1       -0.2665
     31 C         141.4412  139.6660  161.9850 C.3     1  UNL1        0.0899
     32 C         141.4772  139.8428  160.4959 C.3     1  UNL1        0.0901
     33 C         142.4000  138.5904  164.1470 C.3     1  UNL1        0.0992
     34 C         141.0891  138.6278  164.8752 C.ar    1  UNL1       -0.0060
     35 C         140.0765  137.5437  164.6528 C.ar    1  UNL1       -0.0006
     36 C         138.7656  137.5811  165.3810 C.ar    1  UNL1        0.0294
     37 C         138.4674  138.7025  166.3316 C.ar    1  UNL1        0.1401
     38 F         137.1566  138.7399  167.0598 F       1  UNL1       -0.2042
     39 C         139.4801  139.7865  166.5539 C.ar    1  UNL1        0.0294
     40 C         140.7909  139.7491  165.8257 C.ar    1  UNL1       -0.0006
@<TRIPOS>BOND
     1     8     9    2
     2     9    10   am
     3    10     2    1
     4     2     3   ar
     5     3     4   ar
     6     4     5   ar
     7     5     6   ar
     8     6     1    1
     9     1    15    1
    10    15    16   ar
    11    16    17   ar
    12    17    18   ar
    13    18    21    1
    14    21    22    2
    15    21    23   am
    16    23    24    1
    17    24    25    1
    18    25    26    1
    19    18    19   ar
    20    19    20   ar
    21     1    27    1
    22    27    28    1
    23    28    29    1
    24    29    30    1
    25    30    33    1
    26    33    34    1
    27    34    35   ar
    28    35    36   ar
    29    36    37   ar
    30    37    38    1
    31    37    39   ar
    32    39    40   ar
    33    30    31    1
    34    31    32    1
    35     6     7   ar
    36     9    12    1
    37    12    13    1
    38    13    14    1
    39     7     2   ar
    40    14    12    1
    41    20    15   ar
    42    32    27    1
    43    26    23    1
    44    40    34   ar
    45    10    11    1
@<TRIPOS>MOLECULE
*****
 40 45 0 0 0
SMALL
GASTEIGER

@<TRIPOS>ATOM
      1 C         140.0225  142.8364  157.8639 C.3     1  UNL1        0.1031
      2 C         138.6701  145.3780  155.1324 C.ar    1  UNL1        0.0500
      3 C         137.3121  144.8032  154.8579 C.ar    1  UNL1        0.0147
      4 C         136.8576  143.5727  155.5855 C.ar    1  UNL1        0.0010
      5 C         137.7610  142.9171  156.5874 C.ar    1  UNL1       -0.0026
      6 C         139.1190  143.4920  156.8619 C.ar    1  UNL1       -0.0024
      7 C         139.5735  144.7224  156.1344 C.ar    1  UNL1        0.0120
      8 O         138.7891  148.0105  156.5663 O.2     1  UNL1       -0.2748
      9 C         139.1842  147.9247  155.1218 C.2     1  UNL1        0.2256
     10 N         139.1247  146.6086  154.4048 N.am    1  UNL1       -0.2839
     11 H         139.3839  146.5523  153.4568 H       1  UNL1        0.1549
     12 C         139.6388  149.1553  154.3943 C.3     1  UNL1        0.0768
     13 C         139.4098  150.5787  153.9805 C.3     1  UNL1        0.0096
     14 C         140.6550  149.8630  153.5479 C.3     1  UNL1        0.0096
     15 C         140.9397  141.7295  157.4354 C.ar    1  UNL1       -0.0036
     16 C         140.9397  141.2653  156.0090 C.ar    1  UNL1       -0.0025
     17 C         141.8569  140.1584  155.5806 C.ar    1  UNL1        0.0042
     18 C         142.7741  139.5158  156.5785 C.ar    1  UNL1        0.0536
     19 C         142.7741  139.9800  158.0048 C.ar    1  UNL1        0.0042
     20 C         141.8568  141.0869  158.4333 C.ar    1  UNL1       -0.0025
     21 C         143.6913  138.4088  156.1500 C.2     1  UNL1        0.2490
     22 O         145.0979  138.7199  155.7320 O.2     1  UNL1       -0.2699
     23 N         143.2018  136.9910  156.1395 N.am    1  UNL1       -0.2760
     24 C         141.9071  136.3133  156.4776 C.3     1  UNL1        0.0955
     25 C         142.5097  134.9858  156.1246 C.3     1  UNL1        0.0430
     26 C         143.8045  135.6635  155.7865 C.3     1  UNL1        0.0955
     27 N         140.0088  143.2877  159.2943 N.3     1  UNL1       -0.2644
     28 C         140.9457  144.3671  159.7492 C.3     1  UNL1        0.0901
     29 C         140.9320  144.8183  161.1797 C.3     1  UNL1        0.0899
     30 N         139.9813  144.1902  162.1552 N.3     1  UNL1       -0.2665
     31 C         139.0443  143.1108  161.7003 C.3     1  UNL1        0.0899
     32 C         139.0580  142.6595  160.2698 C.3     1  UNL1        0.0901
     33 C         139.9675  144.6414  163.5857 C.3     1  UNL1        0.0992
     34 C         140.6695  143.8308  164.6346 C.ar    1  UNL1       -0.0060
     35 C         142.1274  143.5113  164.4845 C.ar    1  UNL1       -0.0006
     36 C         142.8294  142.7007  165.5334 C.ar    1  UNL1        0.0294
     37 C         142.0734  142.2097  166.7324 C.ar    1  UNL1        0.1401
     38 F         142.7754  141.3991  167.7813 F       1  UNL1       -0.2042
     39 C         140.6156  142.5292  166.8824 C.ar    1  UNL1        0.0294
     40 C         139.9136  143.3398  165.8335 C.ar    1  UNL1       -0.0006
@<TRIPOS>BOND
     1     8     9    2
     2     9    10   am
     3    10     2    1
     4     2     3   ar
     5     3     4   ar
     6     4     5   ar
     7     5     6   ar
     8     6     1    1
     9     1    15    1
    10    15    16   ar
    11    16    17   ar
    12    17    18   ar
    13    18    21    1
    14    21    22    2
    15    21    23   am
    16    23    24    1
    17    24    25    1
    18    25    26    1
    19    18    19   ar
    20    19    20   ar
    21     1    27    1
    22    27    28    1
    23    28    29    1
    24    29    30    1
    25    30    33    1
    26    33    34    1
    27    34    35   ar
    28    35    36   ar
    29    36    37   ar
    30    37    38    1
    31    37    39   ar
    32    39    40   ar
    33    30    31    1
    34    31    32    1
    35     6     7   ar
    36     9    12    1
    37    12    13    1
    38    13    14    1
    39     7     2   ar
    40    14    12    1
    41    20    15   ar
    42    32    27    1
    43    26    23    1
    44    40    34   ar
    45    10    11    1
@<TRIPOS>MOLECULE
*****
 40 45 0 0 0
SMALL
GASTEIGER

@<TRIPOS>ATOM
      1 C         138.4626  142.2863  157.0342 C.3     1  UNL1        0.1031
      2 C         135.3024  140.3912  155.5607 C.ar    1  UNL1        0.0500
      3 C         135.9649  139.4035  154.6466 C.ar    1  UNL1        0.0147
      4 C         137.4599  139.3768  154.5284 C.ar    1  UNL1        0.0010
      5 C         138.2925  140.3377  155.3243 C.ar    1  UNL1       -0.0026
      6 C         137.6300  141.3254  156.2384 C.ar    1  UNL1       -0.0024
      7 C         136.1350  141.3521  156.3566 C.ar    1  UNL1        0.0120
      8 O         133.9589  139.0793  157.9004 O.2     1  UNL1       -0.2748
      9 C         133.1355  139.7620  156.8488 C.2     1  UNL1        0.2256
     10 N         133.8072  140.4180  155.6790 N.am    1  UNL1       -0.2839
     11 H         133.2668  140.8661  154.9887 H       1  UNL1        0.1549
     12 C         131.6404  139.7888  156.9670 C.3     1  UNL1        0.0768
     13 C         130.3936  139.4954  157.7477 C.3     1  UNL1        0.0096
     14 C         130.2976  140.1285  156.3912 C.3     1  UNL1        0.0096
     15 C         138.6707  143.6869  156.5391 C.ar    1  UNL1       -0.0036
     16 C         139.7893  144.5194  157.0920 C.ar    1  UNL1       -0.0025
     17 C         139.9973  145.9200  156.5969 C.ar    1  UNL1        0.0042
     18 C         139.0868  146.4880  155.5489 C.ar    1  UNL1        0.0536
     19 C         137.9682  145.6555  154.9960 C.ar    1  UNL1        0.0042
     20 C         137.7601  144.2549  155.4911 C.ar    1  UNL1       -0.0025
     21 C         139.2949  147.8886  155.0538 C.2     1  UNL1        0.2490
     22 O         138.6288  149.0374  155.7514 O.2     1  UNL1       -0.2699
     23 N         140.1690  148.1404  153.8612 N.am    1  UNL1       -0.2760
     24 C         140.9741  147.2777  152.9352 C.3     1  UNL1        0.0955
     25 C         141.4053  148.4965  152.1745 C.3     1  UNL1        0.0430
     26 C         140.6002  149.3592  153.1005 C.3     1  UNL1        0.0955
     27 N         139.0872  141.8467  158.3252 N.3     1  UNL1       -0.2644
     28 C         140.3699  141.0693  158.3114 C.3     1  UNL1        0.0901
     29 C         140.9944  140.6297  159.6024 C.3     1  UNL1        0.0899
     30 N         140.3362  140.9675  160.9072 N.3     1  UNL1       -0.2665
     31 C         139.0535  141.7450  160.9211 C.3     1  UNL1        0.0899
     32 C         138.4290  142.1846  159.6301 C.3     1  UNL1        0.0901
     33 C         140.9608  140.5279  162.1983 C.3     1  UNL1        0.0992
     34 C         140.0923  140.1022  163.3448 C.ar    1  UNL1       -0.0060
     35 C         139.5805  138.6939  163.4154 C.ar    1  UNL1       -0.0006
     36 C         138.7120  138.2682  164.5619 C.ar    1  UNL1        0.0294
     37 C         138.3554  139.2507  165.6379 C.ar    1  UNL1        0.1401
     38 F         137.4869  138.8249  166.7844 F       1  UNL1       -0.2042
     39 C         138.8672  140.6588  165.5672 C.ar    1  UNL1        0.0294
     40 C         139.7357  141.0846  164.4207 C.ar    1  UNL1       -0.0006
@<TRIPOS>BOND
     1     8     9    2
     2     9    10   am
     3    10     2    1
     4     2     3   ar
     5     3     4   ar
     6     4     5   ar
     7     5     6   ar
     8     6     1    1
     9     1    15    1
    10    15    16   ar
    11    16    17   ar
    12    17    18   ar
    13    18    21    1
    14    21    22    2
    15    21    23   am
    16    23    24    1
    17    24    25    1
    18    25    26    1
    19    18    19   ar
    20    19    20   ar
    21     1    27    1
    22    27    28    1
    23    28    29    1
    24    29    30    1
    25    30    33    1
    26    33    34    1
    27    34    35   ar
    28    35    36   ar
    29    36    37   ar
    30    37    38    1
    31    37    39   ar
    32    39    40   ar
    33    30    31    1
    34    31    32    1
    35     6     7   ar
    36     9    12    1
    37    12    13    1
    38    13    14    1
    39     7     2   ar
    40    14    12    1
    41    20    15   ar
    42    32    27    1
    43    26    23    1
    44    40    34   ar
    45    10    11    1
