@<TRIPOS>MOLECULE
*****
 33 37 0 0 0
SMALL
GASTEIGER

@<TRIPOS>ATOM
      1 N         138.9682  144.6838  162.5654 N.am    1  UNL1       -0.2991
      2 C         140.3278  144.7012  161.9320 C.2     1  UNL1        0.2223
      3 O         141.5561  144.6322  162.7903 O.2     1  UNL1       -0.2751
      4 H         138.1621  144.7291  162.0020 H       1  UNL1        0.1498
      5 C         140.4592  144.7875  160.4402 C.3     1  UNL1        0.0793
      6 C         141.1333  145.3547  159.2262 C.3     1  UNL1        0.0264
      7 C         141.6046  145.7412  157.8556 C.3     1  UNL1        0.0729
      8 N         140.7752  144.9952  156.8528 N.3     1  UNL1       -0.2689
      9 C         139.7914  144.1476  157.6036 C.3     1  UNL1        0.0729
     10 C         140.0127  144.3698  159.0705 C.3     1  UNL1        0.0264
     11 C         140.9066  145.0815  155.3611 C.3     1  UNL1        0.0991
     12 C         140.6213  146.3747  154.6567 C.ar    1  UNL1       -0.0061
     13 C         139.7085  147.3856  155.2850 C.ar    1  UNL1       -0.0029
     14 C         139.4232  148.6787  154.5805 C.ar    1  UNL1       -0.0003
     15 C         140.0506  148.9611  153.2477 C.ar    1  UNL1       -0.0000
     16 C         140.9635  147.9501  152.6193 C.ar    1  UNL1       -0.0003
     17 C         141.2488  146.6569  153.3237 C.ar    1  UNL1       -0.0029
     18 C         138.8369  144.5975  164.0571 C.3     1  UNL1        0.1376
     19 C         138.8208  140.9333  165.3372 C.ar    1  UNL1        0.0617
     20 C         138.3523  141.9886  164.3798 C.ar    1  UNL1        0.0329
     21 C         139.0189  143.2801  164.7510 C.ar    1  UNL1        0.0999
     22 N         139.8993  143.0229  165.9379 N.ar    1  UNL1       -0.1681
     23 N         139.7769  141.5724  166.3002 N.ar    1  UNL1       -0.2340
     24 C         140.4860  140.8824  167.4275 C.ar    1  UNL1        0.0824
     25 C         139.7649  140.6146  168.7152 C.ar    1  UNL1        0.0191
     26 C         140.4742  139.9246  169.8425 C.ar    1  UNL1        0.0015
     27 C         141.9046  139.5023  169.6822 C.ar    1  UNL1        0.0001
     28 C         142.6257  139.7701  168.3944 C.ar    1  UNL1        0.0015
     29 C         141.9164  140.4601  167.2671 C.ar    1  UNL1        0.0191
     30 C         138.4060  139.4917  165.3326 C.3     1  UNL1        0.0459
     31 C         138.6245  137.9997  163.2169 C.3     1  UNL1        0.0004
     32 C         139.1765  138.4922  164.5218 C.3     1  UNL1        0.0059
     33 C         140.4990  137.9852  165.0159 C.3     1  UNL1        0.0004
@<TRIPOS>BOND
     1    31    32    1
     2    32    33    1
     3    32    30    1
     4    30    19    1
     5    19    20   ar
     6    20    21   ar
     7    21    18    1
     8    18     1    1
     9     1     2   am
    10     2     3    2
    11     2     5    1
    12     5     6    1
    13     6     7    1
    14     7     8    1
    15     8    11    1
    16    11    12    1
    17    12    13   ar
    18    13    14   ar
    19    14    15   ar
    20    15    16   ar
    21    16    17   ar
    22     8     9    1
    23     9    10    1
    24    21    22   ar
    25    22    23   ar
    26    23    24    1
    27    24    25   ar
    28    25    26   ar
    29    26    27   ar
    30    27    28   ar
    31    28    29   ar
    32    23    19   ar
    33    29    24   ar
    34    10     5    1
    35    10     6    1
    36    17    12   ar
    37     1     4    1
@<TRIPOS>MOLECULE
*****
 33 37 0 0 0
SMALL
GASTEIGER

@<TRIPOS>ATOM
      1 N         142.4498  136.2767  157.1140 N.am    1  UNL1       -0.2991
      2 C         143.4499  135.5734  156.2450 C.2     1  UNL1        0.2223
      3 O         144.5601  136.3492  155.6001 O.2     1  UNL1       -0.2751
      4 H         141.7212  135.7676  157.5372 H       1  UNL1        0.1498
      5 C         143.3398  134.0943  156.0207 C.3     1  UNL1        0.0793
      6 C         143.9918  132.7635  155.7890 C.3     1  UNL1        0.0264
      7 C         144.3491  131.3260  155.5526 C.3     1  UNL1        0.0729
      8 N         143.0751  130.5375  155.4814 N.3     1  UNL1       -0.2689
      9 C         141.9305  131.4876  155.6739 C.3     1  UNL1        0.0729
     10 C         142.4970  132.8634  155.8640 C.3     1  UNL1        0.0264
     11 C         142.9650  129.0584  155.2572 C.3     1  UNL1        0.0991
     12 C         141.7528  128.3155  155.7353 C.ar    1  UNL1       -0.0061
     13 C         141.8279  127.4778  156.9772 C.ar    1  UNL1       -0.0029
     14 C         140.6156  126.7349  157.4553 C.ar    1  UNL1       -0.0003
     15 C         139.3282  126.8298  156.6914 C.ar    1  UNL1       -0.0000
     16 C         139.2531  127.6676  155.4494 C.ar    1  UNL1       -0.0003
     17 C         140.4653  128.4105  154.9713 C.ar    1  UNL1       -0.0029
     18 C         142.5600  137.7558  157.3382 C.3     1  UNL1        0.1376
     19 C         141.7111  138.9914  160.9184 C.ar    1  UNL1        0.0617
     20 C         141.3048  138.3620  159.6190 C.ar    1  UNL1        0.0329
     21 C         142.5131  138.3086  158.7318 C.ar    1  UNL1        0.0999
     22 N         143.6663  138.9051  159.4830 N.ar    1  UNL1       -0.1681
     23 N         143.1706  139.3271  160.8345 N.ar    1  UNL1       -0.2340
     24 C         143.9906  139.9717  161.9125 C.ar    1  UNL1        0.0824
     25 C         144.2815  139.2256  163.1809 C.ar    1  UNL1        0.0191
     26 C         145.1014  139.8703  164.2589 C.ar    1  UNL1        0.0015
     27 C         145.6306  141.2609  164.0686 C.ar    1  UNL1        0.0001
     28 C         145.3396  142.0069  162.8002 C.ar    1  UNL1        0.0015
     29 C         144.5197  141.3623  161.7222 C.ar    1  UNL1        0.0191
     30 C         140.8153  139.2413  162.0953 C.3     1  UNL1        0.0459
     31 C         141.1633  137.1590  163.6095 C.3     1  UNL1        0.0004
     32 C         140.2482  138.0855  162.8650 C.3     1  UNL1        0.0059
     33 C         138.7660  137.8561  162.8903 C.3     1  UNL1        0.0004
@<TRIPOS>BOND
     1    31    32    1
     2    32    33    1
     3    32    30    1
     4    30    19    1
     5    19    20   ar
     6    20    21   ar
     7    21    18    1
     8    18     1    1
     9     1     2   am
    10     2     3    2
    11     2     5    1
    12     5     6    1
    13     6     7    1
    14     7     8    1
    15     8    11    1
    16    11    12    1
    17    12    13   ar
    18    13    14   ar
    19    14    15   ar
    20    15    16   ar
    21    16    17   ar
    22     8     9    1
    23     9    10    1
    24    21    22   ar
    25    22    23   ar
    26    23    24    1
    27    24    25   ar
    28    25    26   ar
    29    26    27   ar
    30    27    28   ar
    31    28    29   ar
    32    23    19   ar
    33    29    24   ar
    34    10     5    1
    35    10     6    1
    36    17    12   ar
    37     1     4    1
@<TRIPOS>MOLECULE
*****
 33 37 0 0 0
SMALL
GASTEIGER

@<TRIPOS>ATOM
      1 N         143.5040  143.8636  161.4061 N.am    1  UNL1       -0.2991
      2 C         143.2132  143.1506  160.1188 C.2     1  UNL1        0.2223
      3 O         143.7021  141.7477  159.9114 O.2     1  UNL1       -0.2751
      4 H         143.1831  144.7843  161.5423 H       1  UNL1        0.1498
      5 C         142.4336  143.8405  159.0389 C.3     1  UNL1        0.0793
      6 C         142.3963  144.7066  157.8148 C.3     1  UNL1        0.0264
      7 C         142.0491  145.5287  156.6091 C.3     1  UNL1        0.0729
      8 N         140.5588  145.4997  156.4419 N.3     1  UNL1       -0.2689
      9 C         139.9849  144.6596  157.5441 C.3     1  UNL1        0.0729
     10 C         141.1206  144.1694  158.3926 C.3     1  UNL1        0.0264
     11 C         139.7792  146.1896  155.3619 C.3     1  UNL1        0.0991
     12 C         139.4070  147.6349  155.5122 C.ar    1  UNL1       -0.0061
     13 C         139.6821  148.6000  154.3975 C.ar    1  UNL1       -0.0029
     14 C         139.3100  150.0453  154.5477 C.ar    1  UNL1       -0.0003
     15 C         138.6626  150.5255  155.8128 C.ar    1  UNL1       -0.0000
     16 C         138.3874  149.5602  156.9276 C.ar    1  UNL1       -0.0003
     17 C         138.7596  148.1150  156.7773 C.ar    1  UNL1       -0.0029
     18 C         144.2836  143.1736  162.4860 C.3     1  UNL1        0.1376
     19 C         142.3039  141.0213  165.0382 C.ar    1  UNL1        0.0617
     20 C         142.8840  141.2286  163.6706 C.ar    1  UNL1        0.0329
     21 C         143.5680  142.5635  163.6546 C.ar    1  UNL1        0.0999
     22 N         143.4106  143.1812  165.0125 N.ar    1  UNL1       -0.1681
     23 N         142.6293  142.2280  165.8676 N.ar    1  UNL1       -0.2340
     24 C         142.2416  142.4438  167.3004 C.ar    1  UNL1        0.0824
     25 C         143.2809  142.3626  168.3790 C.ar    1  UNL1        0.0191
     26 C         142.8931  142.5784  169.8119 C.ar    1  UNL1        0.0015
     27 C         141.4661  142.8755  170.1662 C.ar    1  UNL1        0.0001
     28 C         140.4269  142.9567  169.0876 C.ar    1  UNL1        0.0015
     29 C         140.8146  142.7408  167.6547 C.ar    1  UNL1        0.0191
     30 C         141.5336  139.8184  165.4962 C.3     1  UNL1        0.0459
     31 C         143.4452  138.1740  166.1223 C.3     1  UNL1        0.0004
     32 C         142.1533  138.4549  165.4136 C.3     1  UNL1        0.0059
     33 C         141.4811  137.3722  164.6223 C.3     1  UNL1        0.0004
@<TRIPOS>BOND
     1    31    32    1
     2    32    33    1
     3    32    30    1
     4    30    19    1
     5    19    20   ar
     6    20    21   ar
     7    21    18    1
     8    18     1    1
     9     1     2   am
    10     2     3    2
    11     2     5    1
    12     5     6    1
    13     6     7    1
    14     7     8    1
    15     8    11    1
    16    11    12    1
    17    12    13   ar
    18    13    14   ar
    19    14    15   ar
    20    15    16   ar
    21    16    17   ar
    22     8     9    1
    23     9    10    1
    24    21    22   ar
    25    22    23   ar
    26    23    24    1
    27    24    25   ar
    28    25    26   ar
    29    26    27   ar
    30    27    28   ar
    31    28    29   ar
    32    23    19   ar
    33    29    24   ar
    34    10     5    1
    35    10     6    1
    36    17    12   ar
    37     1     4    1
@<TRIPOS>MOLECULE
*****
 33 37 0 0 0
SMALL
GASTEIGER

@<TRIPOS>ATOM
      1 N         139.1136  138.0511  161.2952 N.am    1  UNL1       -0.2991
      2 C         139.4564  138.9708  160.1609 C.2     1  UNL1        0.2223
      3 O         139.1480  140.4353  160.2633 O.2     1  UNL1       -0.2751
      4 H         139.3160  137.0900  161.2281 H       1  UNL1        0.1498
      5 C         140.1077  138.4262  158.9243 C.3     1  UNL1        0.0793
      6 C         139.9966  137.8524  157.5428 C.3     1  UNL1        0.0264
      7 C         140.1987  137.2714  156.1748 C.3     1  UNL1        0.0729
      8 N         141.6737  137.1163  155.9504 N.3     1  UNL1       -0.2689
      9 C         142.3832  137.6015  157.1797 C.3     1  UNL1        0.0729
     10 C         141.3467  138.0565  158.1639 C.3     1  UNL1        0.0264
     11 C         142.3249  136.5716  154.7138 C.3     1  UNL1        0.0991
     12 C         142.5828  135.0993  154.5883 C.ar    1  UNL1       -0.0061
     13 C         143.4314  134.3970  155.6065 C.ar    1  UNL1       -0.0029
     14 C         143.6892  132.9247  155.4810 C.ar    1  UNL1       -0.0003
     15 C         143.0985  132.1546  154.3374 C.ar    1  UNL1       -0.0000
     16 C         142.2499  132.8569  153.3191 C.ar    1  UNL1       -0.0003
     17 C         141.9920  134.3292  153.4446 C.ar    1  UNL1       -0.0029
     18 C         138.4624  138.5959  162.5319 C.3     1  UNL1        0.1376
     19 C         141.1988  139.3232  165.1867 C.ar    1  UNL1        0.0617
     20 C         140.7694  138.7369  163.8746 C.ar    1  UNL1        0.0329
     21 C         139.3038  139.0069  163.7036 C.ar    1  UNL1        0.0999
     22 N         138.8275  139.7601  164.9102 N.ar    1  UNL1       -0.1681
     23 N         139.9987  139.9555  165.8268 N.ar    1  UNL1       -0.2340
     24 C         139.9740  140.6597  167.1510 C.ar    1  UNL1        0.0824
     25 C         140.5361  142.0449  167.2745 C.ar    1  UNL1        0.0191
     26 C         140.5113  142.7490  168.5987 C.ar    1  UNL1        0.0015
     27 C         139.9244  142.0679  169.7995 C.ar    1  UNL1        0.0001
     28 C         139.3624  140.6827  169.6760 C.ar    1  UNL1        0.0015
     29 C         139.3871  139.9786  168.3518 C.ar    1  UNL1        0.0191
     30 C         142.5850  139.2840  165.7585 C.3     1  UNL1        0.0459
     31 C         144.8028  139.4173  164.4117 C.3     1  UNL1        0.0004
     32 C         143.6778  140.0989  165.1326 C.3     1  UNL1        0.0059
     33 C         143.6455  141.5956  165.2277 C.3     1  UNL1        0.0004
@<TRIPOS>BOND
     1    31    32    1
     2    32    33    1
     3    32    30    1
     4    30    19    1
     5    19    20   ar
     6    20    21   ar
     7    21    18    1
     8    18     1    1
     9     1     2   am
    10     2     3    2
    11     2     5    1
    12     5     6    1
    13     6     7    1
    14     7     8    1
    15     8    11    1
    16    11    12    1
    17    12    13   ar
    18    13    14   ar
    19    14    15   ar
    20    15    16   ar
    21    16    17   ar
    22     8     9    1
    23     9    10    1
    24    21    22   ar
    25    22    23   ar
    26    23    24    1
    27    24    25   ar
    28    25    26   ar
    29    26    27   ar
    30    27    28   ar
    31    28    29   ar
    32    23    19   ar
    33    29    24   ar
    34    10     5    1
    35    10     6    1
    36    17    12   ar
    37     1     4    1
@<TRIPOS>MOLECULE
*****
 33 37 0 0 0
SMALL
GASTEIGER

@<TRIPOS>ATOM
      1 N         142.7907  144.6213  162.0909 N.am    1  UNL1       -0.2991
      2 C         142.7309  143.8379  160.8131 C.2     1  UNL1        0.2223
      3 O         143.4526  142.5275  160.7023 O.2     1  UNL1       -0.2751
      4 H         142.3171  145.4813  162.1636 H       1  UNL1        0.1498
      5 C         141.9495  144.3648  159.6461 C.3     1  UNL1        0.0793
      6 C         141.8472  145.2673  158.4525 C.3     1  UNL1        0.0264
      7 C         141.4590  146.0442  157.2295 C.3     1  UNL1        0.0729
      8 N         140.0704  145.6319  156.8398 N.3     1  UNL1       -0.2689
      9 C         139.6004  144.6001  157.8219 C.3     1  UNL1        0.0729
     10 C         140.6985  144.3748  158.8186 C.3     1  UNL1        0.0264
     11 C         139.2890  146.1588  155.6728 C.3     1  UNL1        0.0991
     12 C         139.2472  147.6336  155.4027 C.ar    1  UNL1       -0.0061
     13 C         138.5179  148.5478  156.3421 C.ar    1  UNL1       -0.0029
     14 C         138.4760  150.0227  156.0720 C.ar    1  UNL1       -0.0003
     15 C         139.1635  150.5835  154.8624 C.ar    1  UNL1       -0.0000
     16 C         139.8927  149.6692  153.9230 C.ar    1  UNL1       -0.0003
     17 C         139.9346  148.1944  154.1931 C.ar    1  UNL1       -0.0029
     18 C         143.5722  144.0943  163.2578 C.3     1  UNL1        0.1376
     19 C         142.4191  141.7460  166.1251 C.ar    1  UNL1        0.0617
     20 C         143.2289  142.9065  165.6277 C.ar    1  UNL1        0.0329
     21 C         142.9680  143.0580  164.1583 C.ar    1  UNL1        0.0999
     22 N         141.9969  141.9911  163.7476 N.ar    1  UNL1       -0.1681
     23 N         141.6576  141.1803  164.9633 N.ar    1  UNL1       -0.2340
     24 C         140.7213  140.0093  165.0088 C.ar    1  UNL1        0.0824
     25 C         141.2214  138.6356  164.6730 C.ar    1  UNL1        0.0191
     26 C         140.2850  137.4647  164.7186 C.ar    1  UNL1        0.0015
     27 C         138.8485  137.6674  165.0999 C.ar    1  UNL1        0.0001
     28 C         138.3484  139.0411  165.4357 C.ar    1  UNL1        0.0015
     29 C         139.2848  140.2120  165.3901 C.ar    1  UNL1        0.0191
     30 C         142.3779  141.2402  167.5366 C.3     1  UNL1        0.0459
     31 C         140.7279  142.8439  168.7431 C.3     1  UNL1        0.0004
     32 C         141.1520  141.4532  168.3742 C.3     1  UNL1        0.0059
     33 C         140.3500  140.2754  168.8431 C.3     1  UNL1        0.0004
@<TRIPOS>BOND
     1    31    32    1
     2    32    33    1
     3    32    30    1
     4    30    19    1
     5    19    20   ar
     6    20    21   ar
     7    21    18    1
     8    18     1    1
     9     1     2   am
    10     2     3    2
    11     2     5    1
    12     5     6    1
    13     6     7    1
    14     7     8    1
    15     8    11    1
    16    11    12    1
    17    12    13   ar
    18    13    14   ar
    19    14    15   ar
    20    15    16   ar
    21    16    17   ar
    22     8     9    1
    23     9    10    1
    24    21    22   ar
    25    22    23   ar
    26    23    24    1
    27    24    25   ar
    28    25    26   ar
    29    26    27   ar
    30    27    28   ar
    31    28    29   ar
    32    23    19   ar
    33    29    24   ar
    34    10     5    1
    35    10     6    1
    36    17    12   ar
    37     1     4    1
@<TRIPOS>MOLECULE
*****
 33 37 0 0 0
SMALL
GASTEIGER

@<TRIPOS>ATOM
      1 N         138.9145  138.4858  161.3470 N.am    1  UNL1       -0.2991
      2 C         139.1090  139.2671  160.0813 C.2     1  UNL1        0.2223
      3 O         138.4972  140.6293  159.9393 O.2     1  UNL1       -0.2751
      4 H         139.3160  137.5918  161.4402 H       1  UNL1        0.1498
      5 C         139.9152  138.6861  158.9577 C.3     1  UNL1        0.0793
      6 C         139.9818  138.0336  157.6087 C.3     1  UNL1        0.0264
      7 C         140.3582  137.3888  156.3077 C.3     1  UNL1        0.0729
      8 N         141.8539  137.2890  156.2556 N.3     1  UNL1       -0.2689
      9 C         142.4020  137.8721  157.5243 C.3     1  UNL1        0.0729
     10 C         141.2449  138.3323  158.3606 C.3     1  UNL1        0.0264
     11 C         142.6601  136.7080  155.1320 C.3     1  UNL1        0.0991
     12 C         142.9014  135.2289  155.0686 C.ar    1  UNL1       -0.0061
     13 C         142.3195  134.4214  153.9465 C.ar    1  UNL1       -0.0029
     14 C         142.5608  132.9423  153.8832 C.ar    1  UNL1       -0.0003
     15 C         143.3841  132.2707  154.9420 C.ar    1  UNL1       -0.0000
     16 C         143.9661  133.0783  156.0641 C.ar    1  UNL1       -0.0003
     17 C         143.7248  134.5574  156.1275 C.ar    1  UNL1       -0.0029
     18 C         138.1083  139.0669  162.4706 C.3     1  UNL1        0.1376
     19 C         139.8270  141.5113  164.9477 C.ar    1  UNL1        0.0617
     20 C         139.1546  141.2329  163.6361 C.ar    1  UNL1        0.0329
     21 C         138.7966  139.7768  163.5985 C.ar    1  UNL1        0.0999
     22 N         139.2477  139.1552  164.8870 N.ar    1  UNL1       -0.1681
     23 N         139.8846  140.2273  165.7208 N.ar    1  UNL1       -0.2340
     24 C         140.4752  140.0468  167.0877 C.ar    1  UNL1        0.0824
     25 C         141.9315  139.7203  167.2385 C.ar    1  UNL1        0.0191
     26 C         142.5220  139.5398  168.6054 C.ar    1  UNL1        0.0015
     27 C         141.6564  139.6858  169.8218 C.ar    1  UNL1        0.0001
     28 C         140.2002  140.0123  169.6711 C.ar    1  UNL1        0.0015
     29 C         139.6096  140.1927  168.3041 C.ar    1  UNL1        0.0191
     30 C         140.3500  142.8405  165.4058 C.3     1  UNL1        0.0459
     31 C         138.4495  144.6072  165.2757 C.3     1  UNL1        0.0004
     32 C         139.7905  144.1064  164.8275 C.3     1  UNL1        0.0059
     33 C         140.5721  144.8716  163.8009 C.3     1  UNL1        0.0004
@<TRIPOS>BOND
     1    31    32    1
     2    32    33    1
     3    32    30    1
     4    30    19    1
     5    19    20   ar
     6    20    21   ar
     7    21    18    1
     8    18     1    1
     9     1     2   am
    10     2     3    2
    11     2     5    1
    12     5     6    1
    13     6     7    1
    14     7     8    1
    15     8    11    1
    16    11    12    1
    17    12    13   ar
    18    13    14   ar
    19    14    15   ar
    20    15    16   ar
    21    16    17   ar
    22     8     9    1
    23     9    10    1
    24    21    22   ar
    25    22    23   ar
    26    23    24    1
    27    24    25   ar
    28    25    26   ar
    29    26    27   ar
    30    27    28   ar
    31    28    29   ar
    32    23    19   ar
    33    29    24   ar
    34    10     5    1
    35    10     6    1
    36    17    12   ar
    37     1     4    1
@<TRIPOS>MOLECULE
*****
 33 37 0 0 0
SMALL
GASTEIGER

@<TRIPOS>ATOM
      1 N         141.5674  138.3061  158.3332 N.am    1  UNL1       -0.2991
      2 C         142.7546  137.9255  157.4991 C.2     1  UNL1        0.2223
      3 O         143.7924  138.9536  157.1583 O.2     1  UNL1       -0.2751
      4 H         140.8863  137.6313  158.5569 H       1  UNL1        0.1498
      5 C         142.9040  136.5169  157.0057 C.3     1  UNL1        0.0793
      6 C         142.9238  135.5319  155.8746 C.3     1  UNL1        0.0264
      7 C         142.9981  134.3374  154.9703 C.3     1  UNL1        0.0729
      8 N         143.2633  133.1294  155.8191 N.3     1  UNL1       -0.2689
      9 C         143.3528  133.5772  157.2479 C.3     1  UNL1        0.0729
     10 C         143.1430  135.0621  157.2822 C.3     1  UNL1        0.0264
     11 C         143.4127  131.7207  155.3257 C.3     1  UNL1        0.0991
     12 C         142.2104  130.8293  155.2264 C.ar    1  UNL1       -0.0061
     13 C         140.9011  131.3860  154.7510 C.ar    1  UNL1       -0.0029
     14 C         139.6988  130.4946  154.6518 C.ar    1  UNL1       -0.0003
     15 C         139.8058  129.0464  155.0279 C.ar    1  UNL1       -0.0000
     16 C         141.1151  128.4898  155.5033 C.ar    1  UNL1       -0.0003
     17 C         142.3174  129.3812  155.6026 C.ar    1  UNL1       -0.0029
     18 C         141.4181  139.7148  158.8266 C.3     1  UNL1        0.1376
     19 C         139.1881  139.7101  162.0035 C.ar    1  UNL1        0.0617
     20 C         139.7888  139.0054  160.8234 C.ar    1  UNL1        0.0329
     21 C         140.6329  139.9932  160.0740 C.ar    1  UNL1        0.0999
     22 N         140.5540  141.3084  160.7910 N.ar    1  UNL1       -0.1681
     23 N         139.6611  141.1333  161.9835 N.ar    1  UNL1       -0.2340
     24 C         139.3039  142.1952  162.9809 C.ar    1  UNL1        0.0824
     25 C         140.2142  142.4718  164.1405 C.ar    1  UNL1        0.0191
     26 C         139.8569  143.5337  165.1378 C.ar    1  UNL1        0.0015
     27 C         138.5893  144.3192  164.9755 C.ar    1  UNL1        0.0001
     28 C         137.6790  144.0426  163.8159 C.ar    1  UNL1        0.0015
     29 C         138.0362  142.9807  162.8186 C.ar    1  UNL1        0.0191
     30 C         138.2749  139.0987  163.0244 C.3     1  UNL1        0.0459
     31 C         139.7818  137.7460  164.6521 C.3     1  UNL1        0.0004
     32 C         138.7745  138.8315  164.4133 C.3     1  UNL1        0.0059
     33 C         138.2667  139.6498  165.5634 C.3     1  UNL1        0.0004
@<TRIPOS>BOND
     1    31    32    1
     2    32    33    1
     3    32    30    1
     4    30    19    1
     5    19    20   ar
     6    20    21   ar
     7    21    18    1
     8    18     1    1
     9     1     2   am
    10     2     3    2
    11     2     5    1
    12     5     6    1
    13     6     7    1
    14     7     8    1
    15     8    11    1
    16    11    12    1
    17    12    13   ar
    18    13    14   ar
    19    14    15   ar
    20    15    16   ar
    21    16    17   ar
    22     8     9    1
    23     9    10    1
    24    21    22   ar
    25    22    23   ar
    26    23    24    1
    27    24    25   ar
    28    25    26   ar
    29    26    27   ar
    30    27    28   ar
    31    28    29   ar
    32    23    19   ar
    33    29    24   ar
    34    10     5    1
    35    10     6    1
    36    17    12   ar
    37     1     4    1
@<TRIPOS>MOLECULE
*****
 33 37 0 0 0
SMALL
GASTEIGER

@<TRIPOS>ATOM
      1 N         138.4642  143.0459  160.3701 N.am    1  UNL1       -0.2991
      2 C         139.2834  142.6929  159.1641 C.2     1  UNL1        0.2223
      3 O         139.8815  141.3230  159.0385 O.2     1  UNL1       -0.2751
      4 H         138.0716  143.9449  160.4525 H       1  UNL1        0.1498
      5 C         139.5046  143.7098  158.0838 C.3     1  UNL1        0.0793
      6 C         139.1327  144.2928  156.7528 C.3     1  UNL1        0.0264
      7 C         138.9947  145.0760  155.4809 C.3     1  UNL1        0.0729
      8 N         140.0364  146.1552  155.4859 N.3     1  UNL1       -0.2689
      9 C         140.8182  146.0391  156.7608 C.3     1  UNL1        0.0729
     10 C         140.2596  144.8881  157.5438 C.3     1  UNL1        0.0264
     11 C         140.2576  147.1721  154.4056 C.3     1  UNL1        0.0991
     12 C         139.7286  148.5663  154.5682 C.ar    1  UNL1       -0.0061
     13 C         140.0673  149.6199  153.5558 C.ar    1  UNL1       -0.0029
     14 C         139.5383  151.0140  153.7184 C.ar    1  UNL1       -0.0003
     15 C         138.6704  151.3546  154.8935 C.ar    1  UNL1       -0.0000
     16 C         138.3316  150.3009  155.9060 C.ar    1  UNL1       -0.0003
     17 C         138.8607  148.9067  155.7434 C.ar    1  UNL1       -0.0029
     18 C         138.2430  142.0289  161.4503 C.3     1  UNL1        0.1376
     19 C         141.1615  142.0117  164.0091 C.ar    1  UNL1        0.0617
     20 C         140.6538  142.1163  162.6016 C.ar    1  UNL1        0.0329
     21 C         139.1602  141.9832  162.6364 C.ar    1  UNL1        0.0999
     22 N         138.7447  141.7963  164.0655 N.ar    1  UNL1       -0.1681
     23 N         139.9817  141.8140  164.9139 N.ar    1  UNL1       -0.2340
     24 C         140.0301  141.6608  166.4053 C.ar    1  UNL1        0.0824
     25 C         139.5748  140.3817  167.0430 C.ar    1  UNL1        0.0191
     26 C         139.6233  140.2286  168.5344 C.ar    1  UNL1        0.0015
     27 C         140.1269  141.3545  169.3881 C.ar    1  UNL1        0.0001
     28 C         140.5822  142.6335  168.7503 C.ar    1  UNL1        0.0015
     29 C         140.5337  142.7867  167.2590 C.ar    1  UNL1        0.0191
     30 C         142.5970  142.0910  164.4368 C.3     1  UNL1        0.0459
     31 C         144.5054  143.5315  165.4533 C.3     1  UNL1        0.0004
     32 C         143.2439  143.4277  164.6483 C.3     1  UNL1        0.0059
     33 C         142.6294  144.6607  164.0547 C.3     1  UNL1        0.0004
@<TRIPOS>BOND
     1    31    32    1
     2    32    33    1
     3    32    30    1
     4    30    19    1
     5    19    20   ar
     6    20    21   ar
     7    21    18    1
     8    18     1    1
     9     1     2   am
    10     2     3    2
    11     2     5    1
    12     5     6    1
    13     6     7    1
    14     7     8    1
    15     8    11    1
    16    11    12    1
    17    12    13   ar
    18    13    14   ar
    19    14    15   ar
    20    15    16   ar
    21    16    17   ar
    22     8     9    1
    23     9    10    1
    24    21    22   ar
    25    22    23   ar
    26    23    24    1
    27    24    25   ar
    28    25    26   ar
    29    26    27   ar
    30    27    28   ar
    31    28    29   ar
    32    23    19   ar
    33    29    24   ar
    34    10     5    1
    35    10     6    1
    36    17    12   ar
    37     1     4    1
@<TRIPOS>MOLECULE
*****
 33 37 0 0 0
SMALL
GASTEIGER

@<TRIPOS>ATOM
      1 N         143.0392  137.2299  158.4088 N.am    1  UNL1       -0.2991
      2 C         142.7124  136.4818  157.1504 C.2     1  UNL1        0.2223
      3 O         142.0649  137.1951  156.0005 O.2     1  UNL1       -0.2751
      4 H         143.4641  136.7619  159.1635 H       1  UNL1        0.1498
      5 C         143.0329  135.0205  157.0419 C.3     1  UNL1        0.0793
      6 C         143.8838  133.8455  157.4230 C.3     1  UNL1        0.0264
      7 C         144.5430  132.5116  157.6135 C.3     1  UNL1        0.0729
      8 N         143.8039  131.5063  156.7810 N.3     1  UNL1       -0.2689
      9 C         142.6880  132.2188  156.0760 C.3     1  UNL1        0.0729
     10 C         142.7374  133.6645  156.4728 C.3     1  UNL1        0.0264
     11 C         144.1245  130.0450  156.6724 C.3     1  UNL1        0.0991
     12 C         143.5820  129.0809  157.6854 C.ar    1  UNL1       -0.0061
     13 C         142.4860  128.1304  157.3044 C.ar    1  UNL1       -0.0029
     14 C         141.9434  127.1662  158.3174 C.ar    1  UNL1       -0.0003
     15 C         142.4969  127.1526  159.7115 C.ar    1  UNL1       -0.0000
     16 C         143.5930  128.1032  160.0925 C.ar    1  UNL1       -0.0003
     17 C         144.1356  129.0673  159.0795 C.ar    1  UNL1       -0.0029
     18 C         142.7186  138.6913  158.5172 C.3     1  UNL1        0.1376
     19 C         143.8650  139.9778  161.9951 C.ar    1  UNL1        0.0617
     20 C         143.7921  138.8981  160.9564 C.ar    1  UNL1        0.0329
     21 C         143.0287  139.4352  159.7823 C.ar    1  UNL1        0.0999
     22 N         142.6298  140.8470  160.0953 N.ar    1  UNL1       -0.1681
     23 N         143.1467  141.1823  161.4630 N.ar    1  UNL1       -0.2340
     24 C         142.9753  142.4921  162.1735 C.ar    1  UNL1        0.0824
     25 C         141.6491  142.8510  162.7754 C.ar    1  UNL1        0.0191
     26 C         141.4778  144.1608  163.4860 C.ar    1  UNL1        0.0015
     27 C         142.6327  145.1119  163.5947 C.ar    1  UNL1        0.0001
     28 C         143.9590  144.7530  162.9928 C.ar    1  UNL1        0.0015
     29 C         144.1303  143.4431  162.2823 C.ar    1  UNL1        0.0191
     30 C         144.5382  139.8717  163.3314 C.3     1  UNL1        0.0459
     31 C         142.9428  138.7277  165.0331 C.3     1  UNL1        0.0004
     32 C         143.7224  139.9297  164.5888 C.3     1  UNL1        0.0059
     33 C         143.6863  141.1897  165.4020 C.3     1  UNL1        0.0004
@<TRIPOS>BOND
     1    31    32    1
     2    32    33    1
     3    32    30    1
     4    30    19    1
     5    19    20   ar
     6    20    21   ar
     7    21    18    1
     8    18     1    1
     9     1     2   am
    10     2     3    2
    11     2     5    1
    12     5     6    1
    13     6     7    1
    14     7     8    1
    15     8    11    1
    16    11    12    1
    17    12    13   ar
    18    13    14   ar
    19    14    15   ar
    20    15    16   ar
    21    16    17   ar
    22     8     9    1
    23     9    10    1
    24    21    22   ar
    25    22    23   ar
    26    23    24    1
    27    24    25   ar
    28    25    26   ar
    29    26    27   ar
    30    27    28   ar
    31    28    29   ar
    32    23    19   ar
    33    29    24   ar
    34    10     5    1
    35    10     6    1
    36    17    12   ar
    37     1     4    1
