@<TRIPOS>MOLECULE
*****
 30 33 0 0 0
SMALL
GASTEIGER

@<TRIPOS>ATOM
      1 N         141.3643  143.8779  163.6394 N.3     1  UNL1       -0.2619
      2 C         140.2727  143.3263  164.5077 C.3     1  UNL1        0.0732
      3 C         140.6165  142.6029  165.7759 C.3     1  UNL1        0.0272
      4 C         142.0519  142.4310  166.1758 C.3     1  UNL1        0.0864
      5 C         143.1437  142.9826  165.3075 C.3     1  UNL1        0.2819
      6 F         144.5208  143.3241  164.8209 F       1  UNL1       -0.2025
      7 F         143.9657  142.3777  166.4067 F       1  UNL1       -0.2025
      8 C         142.7998  143.7061  164.0393 C.3     1  UNL1        0.1401
      9 C         142.3957  141.7075  167.4441 C.ar    1  UNL1       -0.0169
     10 C         142.2389  140.2179  167.5239 C.ar    1  UNL1       -0.0010
     11 C         142.5827  139.4944  168.7921 C.ar    1  UNL1        0.0363
     12 C         143.0833  140.2607  169.9805 C.ar    1  UNL1        0.1337
     13 O         143.4271  139.5372  171.2488 O.3     1  UNL1       -0.5055
     14 C         143.2401  141.7503  169.9007 C.ar    1  UNL1        0.0363
     15 C         142.8964  142.4737  168.6325 C.ar    1  UNL1       -0.0010
     16 H         143.3292  138.6067  171.2986 H       1  UNL1        0.2922
     17 N         141.0234  145.3305  160.0562 N.am    1  UNL1       -0.2743
     18 C         139.9596  146.0989  160.7829 C.3     1  UNL1        0.0957
     19 C         139.9578  145.6483  162.2136 C.3     1  UNL1        0.0468
     20 C         141.0206  144.6014  162.3712 C.3     1  UNL1        0.1368
     21 C         141.6791  144.4050  161.0379 C.2     1  UNL1        0.2404
     22 O         142.7970  143.4507  160.7386 O.2     1  UNL1       -0.2734
     23 C         141.3706  145.4642  158.6031 C.3     1  UNL1        0.1202
     24 C         137.1554  144.6058  154.4203 C.3     1  UNL1        0.0310
     25 C         138.2092  144.8204  155.4660 C.ar    1  UNL1       -0.0219
     26 C         138.8396  146.1716  155.6292 C.ar    1  UNL1       -0.0045
     27 C         139.8934  146.3862  156.6749 C.ar    1  UNL1       -0.0029
     28 C         140.3168  145.2496  157.5574 C.ar    1  UNL1       -0.0024
     29 C         139.6863  143.8984  157.3942 C.ar    1  UNL1       -0.0029
     30 C         138.6325  143.6838  156.3485 C.ar    1  UNL1       -0.0045
@<TRIPOS>BOND
     1    24    25    1
     2    25    26   ar
     3    26    27   ar
     4    27    28   ar
     5    28    23    1
     6    23    17    1
     7    17    18    1
     8    18    19    1
     9    19    20    1
    10    20     1    1
    11     1     2    1
    12     2     3    1
    13     3     4    1
    14     4     9    1
    15     9    10   ar
    16    10    11   ar
    17    11    12   ar
    18    12    13    1
    19    12    14   ar
    20    14    15   ar
    21     4     5    1
    22     5     6    1
    23     5     7    1
    24     5     8    1
    25    20    21    1
    26    21    22    2
    27    28    29   ar
    28    29    30   ar
    29    30    25   ar
    30    21    17   am
    31     8     1    1
    32    15     9   ar
    33    13    16    1
@<TRIPOS>MOLECULE
*****
 30 33 0 0 0
SMALL
GASTEIGER

@<TRIPOS>ATOM
      1 N         143.0357  141.4863  163.4684 N.3     1  UNL1       -0.2619
      2 C         141.8387  140.7412  163.9803 C.3     1  UNL1        0.0732
      3 C         141.4415  140.8600  165.4219 C.3     1  UNL1        0.0272
      4 C         142.2412  141.7238  166.3516 C.3     1  UNL1        0.0864
      5 C         143.4382  142.4689  165.8396 C.3     1  UNL1        0.2819
      6 F         144.6425  143.3631  165.8268 F       1  UNL1       -0.2025
      7 F         143.4592  142.8982  167.2767 F       1  UNL1       -0.2025
      8 C         143.8354  142.3501  164.3981 C.3     1  UNL1        0.1401
      9 C         141.8439  141.8425  167.7931 C.ar    1  UNL1       -0.0169
     10 C         142.5232  140.9982  168.8303 C.ar    1  UNL1       -0.0010
     11 C         142.1259  141.1169  170.2718 C.ar    1  UNL1        0.0363
     12 C         141.0494  142.0801  170.6762 C.ar    1  UNL1        0.1337
     13 O         140.6521  142.1988  172.1177 O.3     1  UNL1       -0.5055
     14 C         140.3702  142.9244  169.6390 C.ar    1  UNL1        0.0363
     15 C         140.7674  142.8057  168.1976 C.ar    1  UNL1       -0.0010
     16 H         141.0764  141.6714  172.7656 H       1  UNL1        0.2922
     17 N         143.9491  141.9237  159.7215 N.am    1  UNL1       -0.2743
     18 C         144.1394  140.4460  159.8956 C.3     1  UNL1        0.0957
     19 C         143.8204  140.1023  161.3205 C.3     1  UNL1        0.0468
     20 C         143.4329  141.3676  162.0269 C.3     1  UNL1        0.1368
     21 C         143.5125  142.4932  161.0387 C.2     1  UNL1        0.2404
     22 O         143.2088  143.9352  161.3185 O.2     1  UNL1       -0.2734
     23 C         144.1587  142.6962  158.4529 C.3     1  UNL1        0.1202
     24 C         149.0457  141.7127  155.1139 C.3     1  UNL1        0.0310
     25 C         147.8240  141.9585  155.9486 C.ar    1  UNL1       -0.0219
     26 C         147.9157  142.8107  157.1796 C.ar    1  UNL1       -0.0045
     27 C         146.6940  143.0566  158.0144 C.ar    1  UNL1       -0.0029
     28 C         145.3804  142.4503  157.6181 C.ar    1  UNL1       -0.0024
     29 C         145.2887  141.5982  156.3871 C.ar    1  UNL1       -0.0029
     30 C         146.5104  141.3523  155.5524 C.ar    1  UNL1       -0.0045
@<TRIPOS>BOND
     1    24    25    1
     2    25    26   ar
     3    26    27   ar
     4    27    28   ar
     5    28    23    1
     6    23    17    1
     7    17    18    1
     8    18    19    1
     9    19    20    1
    10    20     1    1
    11     1     2    1
    12     2     3    1
    13     3     4    1
    14     4     9    1
    15     9    10   ar
    16    10    11   ar
    17    11    12   ar
    18    12    13    1
    19    12    14   ar
    20    14    15   ar
    21     4     5    1
    22     5     6    1
    23     5     7    1
    24     5     8    1
    25    20    21    1
    26    21    22    2
    27    28    29   ar
    28    29    30   ar
    29    30    25   ar
    30    21    17   am
    31     8     1    1
    32    15     9   ar
    33    13    16    1
@<TRIPOS>MOLECULE
*****
 30 33 0 0 0
SMALL
GASTEIGER

@<TRIPOS>ATOM
      1 N         141.2506  138.8063  162.2680 N.3     1  UNL1       -0.2619
      2 C         141.0444  137.6546  163.2066 C.3     1  UNL1        0.0732
      3 C         141.0294  137.8879  164.6882 C.3     1  UNL1        0.0272
      4 C         141.2207  139.2730  165.2313 C.3     1  UNL1        0.0864
      5 C         141.4270  140.4248  164.2927 C.3     1  UNL1        0.2819
      6 F         141.6557  141.8266  163.8105 F       1  UNL1       -0.2025
      7 F         141.4915  141.1450  165.6069 F       1  UNL1       -0.2025
      8 C         141.4420  140.1913  162.8110 C.3     1  UNL1        0.1401
      9 C         141.2058  139.5064  166.7130 C.ar    1  UNL1       -0.0169
     10 C         139.9259  139.8793  167.4006 C.ar    1  UNL1       -0.0010
     11 C         139.9109  140.1127  168.8823 C.ar    1  UNL1        0.0363
     12 C         141.1759  139.9731  169.6762 C.ar    1  UNL1        0.1337
     13 O         141.1610  140.2065  171.1579 O.3     1  UNL1       -0.5055
     14 C         142.4558  139.6002  168.9886 C.ar    1  UNL1        0.0363
     15 C         142.4708  139.3668  167.5070 C.ar    1  UNL1       -0.0010
     16 H         140.3615  140.4395  171.5874 H       1  UNL1        0.2922
     17 N         141.9829  137.9346  158.5573 N.am    1  UNL1       -0.2743
     18 C         140.5944  138.4930  158.4553 C.3     1  UNL1        0.0957
     19 C         140.1511  138.8876  159.8330 C.3     1  UNL1        0.0468
     20 C         141.2656  138.5729  160.7864 C.3     1  UNL1        0.1368
     21 C         142.3977  137.9840  159.9980 C.2     1  UNL1        0.2404
     22 O         143.7135  137.5250  160.5528 O.2     1  UNL1       -0.2734
     23 C         142.8111  137.4175  157.4186 C.3     1  UNL1        0.1202
     24 C         141.7332  131.9650  155.1585 C.3     1  UNL1        0.0310
     25 C         142.0027  133.3281  155.7235 C.ar    1  UNL1       -0.0219
     26 C         141.2593  134.5192  155.1957 C.ar    1  UNL1       -0.0045
     27 C         141.5287  135.8823  155.7607 C.ar    1  UNL1       -0.0029
     28 C         142.5416  136.0544  156.8535 C.ar    1  UNL1       -0.0024
     29 C         143.2850  134.8633  157.3814 C.ar    1  UNL1       -0.0029
     30 C         143.0156  133.5002  156.8164 C.ar    1  UNL1       -0.0045
@<TRIPOS>BOND
     1    24    25    1
     2    25    26   ar
     3    26    27   ar
     4    27    28   ar
     5    28    23    1
     6    23    17    1
     7    17    18    1
     8    18    19    1
     9    19    20    1
    10    20     1    1
    11     1     2    1
    12     2     3    1
    13     3     4    1
    14     4     9    1
    15     9    10   ar
    16    10    11   ar
    17    11    12   ar
    18    12    13    1
    19    12    14   ar
    20    14    15   ar
    21     4     5    1
    22     5     6    1
    23     5     7    1
    24     5     8    1
    25    20    21    1
    26    21    22    2
    27    28    29   ar
    28    29    30   ar
    29    30    25   ar
    30    21    17   am
    31     8     1    1
    32    15     9   ar
    33    13    16    1
@<TRIPOS>MOLECULE
*****
 30 33 0 0 0
SMALL
GASTEIGER

@<TRIPOS>ATOM
      1 N         142.5390  141.5668  163.1497 N.3     1  UNL1       -0.2619
      2 C         143.3840  140.5246  163.8205 C.3     1  UNL1        0.0732
      3 C         143.3474  140.3759  165.3127 C.3     1  UNL1        0.0272
      4 C         142.4659  141.2693  166.1341 C.3     1  UNL1        0.0864
      5 C         141.6209  142.3116  165.4633 C.3     1  UNL1        0.2819
      6 F         140.6456  143.4379  165.2898 F       1  UNL1       -0.2025
      7 F         141.2456  142.5540  166.8951 F       1  UNL1       -0.2025
      8 C         141.6575  142.4602  163.9711 C.3     1  UNL1        0.1401
      9 C         142.4293  141.1206  167.6262 C.ar    1  UNL1       -0.0169
     10 C         143.1913  142.0776  168.4942 C.ar    1  UNL1       -0.0010
     11 C         143.1547  141.9288  169.9864 C.ar    1  UNL1        0.0363
     12 C         142.3561  140.8231  170.6105 C.ar    1  UNL1        0.1337
     13 O         142.3195  140.6743  172.1026 O.3     1  UNL1       -0.5055
     14 C         141.5940  139.8661  169.7425 C.ar    1  UNL1        0.0363
     15 C         141.6306  140.0148  168.2504 C.ar    1  UNL1       -0.0010
     16 H         142.7955  141.2721  172.6449 H       1  UNL1        0.2922
     17 N         142.9147  142.6350  159.4371 N.am    1  UNL1       -0.2743
     18 C         142.3491  141.2540  159.2856 C.3     1  UNL1        0.0957
     19 C         142.1396  140.6857  160.6579 C.3     1  UNL1        0.0468
     20 C         142.5756  141.7156  161.6576 C.3     1  UNL1        0.1368
     21 C         143.0547  142.9202  160.9032 C.2     1  UNL1        0.2404
     22 O         143.5812  144.1877  161.5083 O.2     1  UNL1       -0.2734
     23 C         143.2767  143.5671  158.3191 C.3     1  UNL1        0.1202
     24 C         139.1267  147.2306  156.0046 C.3     1  UNL1        0.0310
     25 C         140.1642  146.3147  156.5832 C.ar    1  UNL1       -0.0219
     26 C         140.1790  146.0339  158.0566 C.ar    1  UNL1       -0.0045
     27 C         141.2165  145.1181  158.6352 C.ar    1  UNL1       -0.0029
     28 C         142.2392  144.4829  157.7404 C.ar    1  UNL1       -0.0024
     29 C         142.2244  144.7637  156.2671 C.ar    1  UNL1       -0.0029
     30 C         141.1869  145.6796  155.6885 C.ar    1  UNL1       -0.0045
@<TRIPOS>BOND
     1    24    25    1
     2    25    26   ar
     3    26    27   ar
     4    27    28   ar
     5    28    23    1
     6    23    17    1
     7    17    18    1
     8    18    19    1
     9    19    20    1
    10    20     1    1
    11     1     2    1
    12     2     3    1
    13     3     4    1
    14     4     9    1
    15     9    10   ar
    16    10    11   ar
    17    11    12   ar
    18    12    13    1
    19    12    14   ar
    20    14    15   ar
    21     4     5    1
    22     5     6    1
    23     5     7    1
    24     5     8    1
    25    20    21    1
    26    21    22    2
    27    28    29   ar
    28    29    30   ar
    29    30    25   ar
    30    21    17   am
    31     8     1    1
    32    15     9   ar
    33    13    16    1
@<TRIPOS>MOLECULE
*****
 30 33 0 0 0
SMALL
GASTEIGER

@<TRIPOS>ATOM
      1 N         141.5790  143.0045  163.4076 N.3     1  UNL1       -0.2619
      2 C         140.2228  142.6086  163.9114 C.3     1  UNL1        0.0732
      3 C         140.0413  142.2168  165.3479 C.3     1  UNL1        0.0272
      4 C         141.2160  142.2209  166.2806 C.3     1  UNL1        0.0864
      5 C         142.5723  142.6168  165.7769 C.3     1  UNL1        0.2819
      6 F         144.0429  142.9123  165.7713 F       1  UNL1       -0.2025
      7 F         142.9015  142.3276  167.2114 F       1  UNL1       -0.2025
      8 C         142.7538  143.0086  164.3403 C.3     1  UNL1        0.1401
      9 C         141.0345  141.8291  167.7172 C.ar    1  UNL1       -0.0169
     10 C         140.6337  142.8596  168.7307 C.ar    1  UNL1       -0.0010
     11 C         140.4522  142.4678  170.1673 C.ar    1  UNL1        0.0363
     12 C         140.6715  141.0454  170.5901 C.ar    1  UNL1        0.1337
     13 O         140.4900  140.6536  172.0266 O.3     1  UNL1       -0.5055
     14 C         141.0723  140.0149  169.5765 C.ar    1  UNL1        0.0363
     15 C         141.2538  140.4067  168.1401 C.ar    1  UNL1       -0.0010
     16 H         140.2396  141.2973  172.6598 H       1  UNL1        0.2922
     17 N         141.6270  144.6146  159.8762 N.am    1  UNL1       -0.2743
     18 C         142.4527  143.3839  159.6449 C.3     1  UNL1        0.0957
     19 C         142.5353  142.6308  160.9396 C.3     1  UNL1        0.0468
     20 C         141.7605  143.3963  161.9712 C.3     1  UNL1        0.1368
     21 C         141.1992  144.6223  161.3140 C.2     1  UNL1        0.2404
     22 O         140.3579  145.6717  161.9779 O.2     1  UNL1       -0.2734
     23 C         141.2885  145.6550  158.8501 C.3     1  UNL1        0.1202
     24 C         137.3128  144.4242  154.5282 C.3     1  UNL1        0.0310
     25 C         138.3067  144.7319  155.6087 C.ar    1  UNL1       -0.0219
     26 C         138.9416  146.0890  155.6794 C.ar    1  UNL1       -0.0045
     27 C         139.9355  146.3967  156.7599 C.ar    1  UNL1       -0.0029
     28 C         140.2946  145.3473  157.7696 C.ar    1  UNL1       -0.0024
     29 C         139.6598  143.9901  157.6989 C.ar    1  UNL1       -0.0029
     30 C         138.6658  143.6824  156.6184 C.ar    1  UNL1       -0.0045
@<TRIPOS>BOND
     1    24    25    1
     2    25    26   ar
     3    26    27   ar
     4    27    28   ar
     5    28    23    1
     6    23    17    1
     7    17    18    1
     8    18    19    1
     9    19    20    1
    10    20     1    1
    11     1     2    1
    12     2     3    1
    13     3     4    1
    14     4     9    1
    15     9    10   ar
    16    10    11   ar
    17    11    12   ar
    18    12    13    1
    19    12    14   ar
    20    14    15   ar
    21     4     5    1
    22     5     6    1
    23     5     7    1
    24     5     8    1
    25    20    21    1
    26    21    22    2
    27    28    29   ar
    28    29    30   ar
    29    30    25   ar
    30    21    17   am
    31     8     1    1
    32    15     9   ar
    33    13    16    1
@<TRIPOS>MOLECULE
*****
 30 33 0 0 0
SMALL
GASTEIGER

@<TRIPOS>ATOM
      1 N         140.1253  139.7516  163.4158 N.3     1  UNL1       -0.2619
      2 C         139.1724  140.8029  163.9024 C.3     1  UNL1        0.0732
      3 C         139.2030  141.2362  165.3381 C.3     1  UNL1        0.0272
      4 C         140.1865  140.6182  166.2873 C.3     1  UNL1        0.0864
      5 C         141.1395  139.5669  165.8007 C.3     1  UNL1        0.2819
      6 F         142.2351  138.5426  165.8144 F       1  UNL1       -0.2025
      7 F         141.5505  139.6445  167.2411 F       1  UNL1       -0.2025
      8 C         141.1088  139.1336  164.3649 C.3     1  UNL1        0.1401
      9 C         140.2171  141.0516  167.7230 C.ar    1  UNL1       -0.0169
     10 C         140.9525  142.2989  168.1144 C.ar    1  UNL1       -0.0010
     11 C         140.9831  142.7322  169.5502 C.ar    1  UNL1        0.0363
     12 C         140.2783  141.9181  170.5944 C.ar    1  UNL1        0.1337
     13 O         140.3089  142.3514  172.0301 O.3     1  UNL1       -0.5055
     14 C         139.5429  140.6707  170.2030 C.ar    1  UNL1        0.0363
     15 C         139.5123  140.2374  168.7673 C.ar    1  UNL1       -0.0010
     16 H         140.7683  143.1306  172.2746 H       1  UNL1        0.2922
     17 N         140.6821  139.0303  159.6429 N.am    1  UNL1       -0.2743
     18 C         139.4131  138.2726  159.8986 C.3     1  UNL1        0.0957
     19 C         139.0500  138.4506  161.3431 C.3     1  UNL1        0.0468
     20 C         140.0947  139.3183  161.9801 C.3     1  UNL1        0.1368
     21 C         141.1034  139.6765  160.9294 C.2     1  UNL1        0.2404
     22 O         142.3198  140.5310  161.1298 O.2     1  UNL1       -0.2734
     23 C         141.4033  139.1251  158.3311 C.3     1  UNL1        0.1202
     24 C         141.8939  134.2841  154.8205 C.3     1  UNL1        0.0310
     25 C         141.7713  135.4943  155.6982 C.ar    1  UNL1       -0.0219
     26 C         140.5778  136.3941  155.5724 C.ar    1  UNL1       -0.0045
     27 C         140.4551  137.6043  156.4501 C.ar    1  UNL1       -0.0029
     28 C         141.5260  137.9148  157.4534 C.ar    1  UNL1       -0.0024
     29 C         142.7195  137.0150  157.5792 C.ar    1  UNL1       -0.0029
     30 C         142.8422  135.8048  156.7015 C.ar    1  UNL1       -0.0045
@<TRIPOS>BOND
     1    24    25    1
     2    25    26   ar
     3    26    27   ar
     4    27    28   ar
     5    28    23    1
     6    23    17    1
     7    17    18    1
     8    18    19    1
     9    19    20    1
    10    20     1    1
    11     1     2    1
    12     2     3    1
    13     3     4    1
    14     4     9    1
    15     9    10   ar
    16    10    11   ar
    17    11    12   ar
    18    12    13    1
    19    12    14   ar
    20    14    15   ar
    21     4     5    1
    22     5     6    1
    23     5     7    1
    24     5     8    1
    25    20    21    1
    26    21    22    2
    27    28    29   ar
    28    29    30   ar
    29    30    25   ar
    30    21    17   am
    31     8     1    1
    32    15     9   ar
    33    13    16    1
@<TRIPOS>MOLECULE
*****
 30 33 0 0 0
SMALL
GASTEIGER

@<TRIPOS>ATOM
      1 N         140.9452  138.8991  161.5445 N.3     1  UNL1       -0.2619
      2 C         140.8667  140.2984  162.0792 C.3     1  UNL1        0.0732
      3 C         140.9133  140.5395  163.5590 C.3     1  UNL1        0.0272
      4 C         141.0385  139.3814  164.5040 C.3     1  UNL1        0.0864
      5 C         141.1170  137.9821  163.9693 C.3     1  UNL1        0.2819
      6 F         141.2247  136.4862  163.9457 F       1  UNL1       -0.2025
      7 F         141.2010  137.7038  165.4408 F       1  UNL1       -0.2025
      8 C         141.0704  137.7410  162.4895 C.3     1  UNL1        0.1401
      9 C         141.0851  139.6226  165.9838 C.ar    1  UNL1       -0.0169
     10 C         142.4046  139.6616  166.6961 C.ar    1  UNL1       -0.0010
     11 C         142.4512  139.9027  168.1759 C.ar    1  UNL1        0.0363
     12 C         141.1783  140.1048  168.9432 C.ar    1  UNL1        0.1337
     13 O         141.2249  140.3460  170.4230 O.3     1  UNL1       -0.5055
     14 C         139.8588  140.0658  168.2309 C.ar    1  UNL1        0.0363
     15 C         139.8122  139.8247  166.7512 C.ar    1  UNL1       -0.0010
     16 H         142.0492  140.3703  170.8680 H       1  UNL1        0.2922
     17 N         141.5109  137.9807  157.8159 N.am    1  UNL1       -0.2743
     18 C         140.1427  138.5931  157.7593 C.3     1  UNL1        0.0957
     19 C         139.7643  139.0117  159.1491 C.3     1  UNL1        0.0468
     20 C         140.8986  138.6580  160.0648 C.3     1  UNL1        0.1368
     21 C         141.9780  138.0209  159.2409 C.2     1  UNL1        0.2404
     22 O         143.2936  137.5130  159.7520 O.2     1  UNL1       -0.2734
     23 C         142.2774  137.4257  156.6522 C.3     1  UNL1        0.1202
     24 C         142.2762  131.5183  155.6020 C.3     1  UNL1        0.0310
     25 C         142.2765  132.9952  155.8645 C.ar    1  UNL1       -0.0219
     26 C         143.2284  133.5787  156.8662 C.ar    1  UNL1       -0.0045
     27 C         143.2287  135.0555  157.1287 C.ar    1  UNL1       -0.0029
     28 C         142.2771  135.9489  156.3896 C.ar    1  UNL1       -0.0024
     29 C         141.3252  135.3654  155.3879 C.ar    1  UNL1       -0.0029
     30 C         141.3249  133.8885  155.1254 C.ar    1  UNL1       -0.0045
@<TRIPOS>BOND
     1    24    25    1
     2    25    26   ar
     3    26    27   ar
     4    27    28   ar
     5    28    23    1
     6    23    17    1
     7    17    18    1
     8    18    19    1
     9    19    20    1
    10    20     1    1
    11     1     2    1
    12     2     3    1
    13     3     4    1
    14     4     9    1
    15     9    10   ar
    16    10    11   ar
    17    11    12   ar
    18    12    13    1
    19    12    14   ar
    20    14    15   ar
    21     4     5    1
    22     5     6    1
    23     5     7    1
    24     5     8    1
    25    20    21    1
    26    21    22    2
    27    28    29   ar
    28    29    30   ar
    29    30    25   ar
    30    21    17   am
    31     8     1    1
    32    15     9   ar
    33    13    16    1
@<TRIPOS>MOLECULE
*****
 30 33 0 0 0
SMALL
GASTEIGER

@<TRIPOS>ATOM
      1 N         140.0575  141.9582  163.5757 N.3     1  UNL1       -0.2619
      2 C         140.7337  140.6858  163.9923 C.3     1  UNL1        0.0732
      3 C         141.0951  140.4648  165.4313 C.3     1  UNL1        0.0272
      4 C         140.7802  141.5163  166.4537 C.3     1  UNL1        0.0864
      5 C         140.1039  142.7888  166.0371 C.3     1  UNL1        0.2819
      6 F         139.4776  144.1484  166.1317 F       1  UNL1       -0.2025
      7 F         140.2478  143.0399  167.5089 F       1  UNL1       -0.2025
      8 C         139.7426  143.0097  164.5981 C.3     1  UNL1        0.1401
      9 C         141.1416  141.2953  167.8927 C.ar    1  UNL1       -0.0169
     10 C         140.1970  140.5633  168.7993 C.ar    1  UNL1       -0.0010
     11 C         140.5584  140.3423  170.2382 C.ar    1  UNL1        0.0363
     12 C         141.8644  140.8534  170.7705 C.ar    1  UNL1        0.1337
     13 O         142.2257  140.6324  172.2094 O.3     1  UNL1       -0.5055
     14 C         142.8089  141.5853  169.8639 C.ar    1  UNL1        0.0363
     15 C         142.4476  141.8063  168.4250 C.ar    1  UNL1       -0.0010
     16 H         141.6357  140.1751  172.7758 H       1  UNL1        0.2922
     17 N         139.8679  142.5538  159.7450 N.am    1  UNL1       -0.2743
     18 C         138.4122  142.4848  160.1000 C.3     1  UNL1        0.0957
     19 C         138.3059  142.2533  161.5783 C.3     1  UNL1        0.0468
     20 C         139.6961  142.1792  162.1369 C.3     1  UNL1        0.1368
     21 C         140.6615  142.3650  161.0039 C.2     1  UNL1        0.2404
     22 O         142.1576  142.3623  161.1109 O.2     1  UNL1       -0.2734
     23 C         140.4313  142.7732  158.3722 C.3     1  UNL1        0.1202
     24 C         138.8493  147.6276  155.2207 C.3     1  UNL1        0.0310
     25 C         139.2448  146.4140  156.0086 C.ar    1  UNL1       -0.0219
     26 C         138.8964  145.0454  155.5032 C.ar    1  UNL1       -0.0045
     27 C         139.2919  143.8318  156.2911 C.ar    1  UNL1       -0.0029
     28 C         140.0358  143.9868  157.5844 C.ar    1  UNL1       -0.0024
     29 C         140.3842  145.3554  158.0897 C.ar    1  UNL1       -0.0029
     30 C         139.9887  146.5690  157.3018 C.ar    1  UNL1       -0.0045
@<TRIPOS>BOND
     1    24    25    1
     2    25    26   ar
     3    26    27   ar
     4    27    28   ar
     5    28    23    1
     6    23    17    1
     7    17    18    1
     8    18    19    1
     9    19    20    1
    10    20     1    1
    11     1     2    1
    12     2     3    1
    13     3     4    1
    14     4     9    1
    15     9    10   ar
    16    10    11   ar
    17    11    12   ar
    18    12    13    1
    19    12    14   ar
    20    14    15   ar
    21     4     5    1
    22     5     6    1
    23     5     7    1
    24     5     8    1
    25    20    21    1
    26    21    22    2
    27    28    29   ar
    28    29    30   ar
    29    30    25   ar
    30    21    17   am
    31     8     1    1
    32    15     9   ar
    33    13    16    1
@<TRIPOS>MOLECULE
*****
 30 33 0 0 0
SMALL
GASTEIGER

@<TRIPOS>ATOM
      1 N         142.6230  139.8329  163.4899 N.3     1  UNL1       -0.2619
      2 C         141.9436  141.1158  163.8677 C.3     1  UNL1        0.0732
      3 C         141.8383  141.5121  165.3106 C.3     1  UNL1        0.0272
      4 C         142.4123  140.6255  166.3757 C.3     1  UNL1        0.0864
      5 C         143.0917  139.3426  165.9980 C.3     1  UNL1        0.2819
      6 F         143.8226  138.0403  166.1382 F       1  UNL1       -0.2025
      7 F         143.2402  139.2866  167.4895 F       1  UNL1       -0.2025
      8 C         143.1970  138.9464  164.5551 C.3     1  UNL1        0.1401
      9 C         142.3070  141.0218  167.8186 C.ar    1  UNL1       -0.0169
     10 C         141.2858  140.3697  168.7028 C.ar    1  UNL1       -0.0010
     11 C         141.1805  140.7660  170.1457 C.ar    1  UNL1        0.0363
     12 C         142.0964  141.8144  170.7042 C.ar    1  UNL1        0.1337
     13 O         141.9910  142.2107  172.1471 O.3     1  UNL1       -0.5055
     14 C         143.1176  142.4665  169.8200 C.ar    1  UNL1        0.0363
     15 C         143.2229  142.0702  168.3772 C.ar    1  UNL1       -0.0010
     16 H         141.3531  141.8033  172.6995 H       1  UNL1        0.2922
     17 N         142.7477  139.5341  159.6221 N.am    1  UNL1       -0.2743
     18 C         143.0331  138.1196  160.0314 C.3     1  UNL1        0.0957
     19 C         143.0212  138.0593  161.5302 C.3     1  UNL1        0.0468
     20 C         142.7283  139.4367  162.0471 C.3     1  UNL1        0.1368
     21 C         142.5593  140.3481  160.8679 C.2     1  UNL1        0.2404
     22 O         142.2552  141.8159  160.9244 O.2     1  UNL1       -0.2734
     23 C         142.6651  140.0450  158.2142 C.3     1  UNL1        0.1202
     24 C         147.5738  142.1822  155.5055 C.3     1  UNL1        0.0310
     25 C         146.3466  141.6479  156.1826 C.ar    1  UNL1       -0.0219
     26 C         145.6579  140.4323  155.6368 C.ar    1  UNL1       -0.0045
     27 C         144.4307  139.8980  156.3139 C.ar    1  UNL1       -0.0029
     28 C         143.8923  140.5793  157.5370 C.ar    1  UNL1       -0.0024
     29 C         144.5810  141.7948  158.0829 C.ar    1  UNL1       -0.0029
     30 C         145.8082  142.3291  157.4057 C.ar    1  UNL1       -0.0045
@<TRIPOS>BOND
     1    24    25    1
     2    25    26   ar
     3    26    27   ar
     4    27    28   ar
     5    28    23    1
     6    23    17    1
     7    17    18    1
     8    18    19    1
     9    19    20    1
    10    20     1    1
    11     1     2    1
    12     2     3    1
    13     3     4    1
    14     4     9    1
    15     9    10   ar
    16    10    11   ar
    17    11    12   ar
    18    12    13    1
    19    12    14   ar
    20    14    15   ar
    21     4     5    1
    22     5     6    1
    23     5     7    1
    24     5     8    1
    25    20    21    1
    26    21    22    2
    27    28    29   ar
    28    29    30   ar
    29    30    25   ar
    30    21    17   am
    31     8     1    1
    32    15     9   ar
    33    13    16    1
