@<TRIPOS>MOLECULE
*****
 42 46 0 0 0
SMALL
GASTEIGER

@<TRIPOS>ATOM
      1 C         140.7920  142.0474  161.1625 C.ar    1  UNL1        0.0741
      2 C         140.0701  141.1219  160.2284 C.ar    1  UNL1        0.0626
      3 CL        139.8376  139.6926  160.6198 Cl      1  UNL1       -0.0821
      4 C         139.5808  141.6257  158.9030 C.ar    1  UNL1        0.0087
      5 C         139.8133  143.0550  158.5116 C.ar    1  UNL1       -0.0046
      6 C         140.5352  143.9805  159.4457 C.ar    1  UNL1       -0.0120
      7 C         141.0245  143.4766  160.7711 C.ar    1  UNL1        0.0587
      8 CL        141.7464  144.4021  161.7052 Cl      1  UNL1       -0.0824
      9 C         140.7677  145.4097  159.0543 C.3     1  UNL1        0.0484
     10 C         140.2783  145.9135  157.7289 C.3     1  UNL1        0.0987
     11 N         139.5565  144.9880  156.7949 N.am    1  UNL1       -0.2716
     12 C         139.0671  145.4918  155.4694 C.2     1  UNL1        0.2494
     13 O         138.3453  144.5664  154.5354 O.2     1  UNL1       -0.2699
     14 C         139.3240  143.5588  157.1862 C.3     1  UNL1        0.1202
     15 C         139.2997  146.9211  155.0781 C.ar    1  UNL1        0.0566
     16 C         140.3364  147.2574  154.0476 C.ar    1  UNL1        0.0047
     17 C         140.5689  148.6867  153.6562 C.ar    1  UNL1        0.0033
     18 C         139.7647  149.7796  154.2954 C.ar    1  UNL1        0.0377
     19 C         139.7711  151.2685  154.1131 C.ar    1  UNL1        0.0437
     20 C         138.7383  151.8524  155.0309 C.ar    1  UNL1        0.1796
     21 O         138.0935  150.7244  155.7804 O.2     1  UNL1       -0.4504
     22 C         138.7279  149.4433  155.3259 C.ar    1  UNL1        0.1456
     23 C         138.4954  148.0141  155.7173 C.ar    1  UNL1        0.0420
     24 N         142.4968  140.6672  162.5548 N.am    1  UNL1       -0.2973
     25 C         141.2814  141.5435  162.4879 C.2     1  UNL1        0.2477
     26 O         140.5552  141.9161  163.7464 O.2     1  UNL1       -0.2701
     27 H         142.9735  140.4227  161.7288 H       1  UNL1        0.1500
     28 CA        142.9861  140.1634  163.8802 C.3     1  UNL1        0.1127
     29 C         144.0435  140.9214  164.6268 C.2     1  UNL1        0.0685
     30 O         145.4826  140.7958  164.2228 O.co2   1  UNL1       -0.5475
     31 OXT       143.6618  141.8049  165.7773 O.co2   1  UNL1       -0.5475
     32 C         142.4180  138.9016  164.4592 C.3     1  UNL1        0.0517
     33 C         139.7313  139.6725  167.2764 C.ar    1  UNL1        0.1054
     34 C         138.5159  139.0107  166.6978 C.ar    1  UNL1        0.0183
     35 C         138.6012  138.3126  165.3729 C.ar    1  UNL1        0.0010
     36 C         139.9020  138.2762  164.6267 C.ar    1  UNL1       -0.0041
     37 C         141.1173  138.9380  165.2054 C.ar    1  UNL1       -0.0189
     38 C         141.0320  139.6361  166.5302 C.ar    1  UNL1        0.0141
     39 C         139.5607  141.0689  169.9262 C.3     1  UNL1        0.1816
     40 S         139.6460  140.3707  168.6013 S.O2    1  UNL1        0.0104
     41 O         138.4651  139.5232  168.9719 O.2     1  UNL1       -0.1686
     42 O         140.8269  141.2182  168.2308 O.2     1  UNL1       -0.1686
@<TRIPOS>UNITY_ATOM_ATTR
30 1
charge -1
@<TRIPOS>BOND
     1    39    40    1
     2    40    41    2
     3    40    42    2
     4    40    33    1
     5    33    34   ar
     6    34    35   ar
     7    35    36   ar
     8    36    37   ar
     9    37    32    1
    10    28    32    1
    11    28    24    1
    12    24    25   am
    13    25    26    2
    14    25     1    1
    15     1     2   ar
    16     2     3    1
    17     2     4   ar
    18     4     5   ar
    19     5     6   ar
    20     6     7   ar
    21     7     8    1
    22     6     9    1
    23     9    10    1
    24    10    11    1
    25    11    12   am
    26    12    13    2
    27    12    15    1
    28    15    16   ar
    29    16    17   ar
    30    17    18   ar
    31    18    19   ar
    32    19    20   ar
    33    20    21   ar
    34    21    22   ar
    35    22    23   ar
    36    11    14    1
    37    28    29    1
    38    29    30   ar
    39    29    31   ar
    40    37    38   ar
    41    38    33   ar
    42     7     1   ar
    43    23    15   ar
    44    14     5    1
    45    22    18   ar
    46    24    27    1
@<TRIPOS>MOLECULE
*****
 42 46 0 0 0
SMALL
GASTEIGER

@<TRIPOS>ATOM
      1 C         140.7806  141.6279  159.6151 C.ar    1  UNL1        0.0741
      2 C         142.1459  142.0754  159.1843 C.ar    1  UNL1        0.0626
      3 CL        142.6627  143.4188  159.6067 Cl      1  UNL1       -0.0821
      4 C         142.9944  141.1797  158.3313 C.ar    1  UNL1        0.0087
      5 C         142.4776  139.8363  157.9090 C.ar    1  UNL1       -0.0046
      6 C         141.1122  139.3887  158.3398 C.ar    1  UNL1       -0.0120
      7 C         140.2637  140.2846  159.1928 C.ar    1  UNL1        0.0587
      8 CL        138.8984  139.8370  159.6236 Cl      1  UNL1       -0.0824
      9 C         140.5954  138.0454  157.9175 C.3     1  UNL1        0.0484
     10 C         141.4439  137.1497  157.0645 C.3     1  UNL1        0.0987
     11 N         142.8092  137.5973  156.6338 N.am    1  UNL1       -0.2716
     12 C         143.6577  136.7014  155.7807 C.2     1  UNL1        0.2494
     13 O         145.0230  137.1490  155.3500 O.2     1  UNL1       -0.2699
     14 C         143.3260  138.9406  157.0560 C.3     1  UNL1        0.1202
     15 C         143.1408  135.3581  155.3584 C.ar    1  UNL1        0.0566
     16 C         142.4031  135.2125  154.0605 C.ar    1  UNL1        0.0047
     17 C         141.8863  133.8691  153.6383 C.ar    1  UNL1        0.0033
     18 C         142.1071  132.6714  154.5139 C.ar    1  UNL1        0.0377
     19 C         141.7166  131.2312  154.3618 C.ar    1  UNL1        0.0437
     20 C         142.2130  130.4866  155.5657 C.ar    1  UNL1        0.1796
     21 O         142.9102  131.4668  156.4619 O.2     1  UNL1       -0.4504
     22 C         142.8448  132.8171  155.8118 C.ar    1  UNL1        0.1456
     23 C         143.3617  134.1604  156.2341 C.ar    1  UNL1        0.0420
     24 N         140.2074  142.6407  161.9380 N.am    1  UNL1       -0.2973
     25 C         139.9321  142.5237  160.4681 C.2     1  UNL1        0.2477
     26 O         138.8083  143.3025  159.8513 O.2     1  UNL1       -0.2701
     27 H         140.9450  142.1295  162.3429 H       1  UNL1        0.1500
     28 CA        139.3589  143.5364  162.7909 C.3     1  UNL1        0.1127
     29 C         139.5061  145.0259  162.6921 C.2     1  UNL1        0.0685
     30 O         138.4185  145.8472  162.0656 O.co2   1  UNL1       -0.5475
     31 OXT       140.7411  145.6942  163.2198 O.co2   1  UNL1       -0.5475
     32 C         138.3631  142.9428  163.7428 C.3     1  UNL1        0.0517
     33 C         138.7632  139.8549  166.2034 C.ar    1  UNL1        0.1054
     34 C         139.7724  140.3942  167.1734 C.ar    1  UNL1        0.0183
     35 C         140.3118  141.7831  166.9998 C.ar    1  UNL1        0.0010
     36 C         139.8420  142.6326  165.8562 C.ar    1  UNL1       -0.0041
     37 C         138.8328  142.0933  164.8863 C.ar    1  UNL1       -0.0189
     38 C         138.2935  140.7044  165.0599 C.ar    1  UNL1        0.0141
     39 C         137.6845  137.0771  166.5506 C.3     1  UNL1        0.1816
     40 S         138.2239  138.4660  166.3770 S.O2    1  UNL1        0.0104
     41 O         138.6108  138.1393  164.9651 O.2     1  UNL1       -0.1686
     42 O         137.8369  138.7928  167.7889 O.2     1  UNL1       -0.1686
@<TRIPOS>UNITY_ATOM_ATTR
30 1
charge -1
@<TRIPOS>BOND
     1    39    40    1
     2    40    41    2
     3    40    42    2
     4    40    33    1
     5    33    34   ar
     6    34    35   ar
     7    35    36   ar
     8    36    37   ar
     9    37    32    1
    10    28    32    1
    11    28    24    1
    12    24    25   am
    13    25    26    2
    14    25     1    1
    15     1     2   ar
    16     2     3    1
    17     2     4   ar
    18     4     5   ar
    19     5     6   ar
    20     6     7   ar
    21     7     8    1
    22     6     9    1
    23     9    10    1
    24    10    11    1
    25    11    12   am
    26    12    13    2
    27    12    15    1
    28    15    16   ar
    29    16    17   ar
    30    17    18   ar
    31    18    19   ar
    32    19    20   ar
    33    20    21   ar
    34    21    22   ar
    35    22    23   ar
    36    11    14    1
    37    28    29    1
    38    29    30   ar
    39    29    31   ar
    40    37    38   ar
    41    38    33   ar
    42     7     1   ar
    43    23    15   ar
    44    14     5    1
    45    22    18   ar
    46    24    27    1
@<TRIPOS>MOLECULE
*****
 42 46 0 0 0
SMALL
GASTEIGER

@<TRIPOS>ATOM
      1 C         140.9650  141.6883  159.8840 C.ar    1  UNL1        0.0741
      2 C         142.3654  142.0707  159.5066 C.ar    1  UNL1        0.0626
      3 CL        142.9600  143.3467  160.0249 Cl      1  UNL1       -0.0821
      4 C         143.1713  141.1773  158.6109 C.ar    1  UNL1        0.0087
      5 C         142.5768  139.9014  158.0926 C.ar    1  UNL1       -0.0046
      6 C         141.1763  139.5189  158.4700 C.ar    1  UNL1       -0.0120
      7 C         140.3704  140.4125  159.3658 C.ar    1  UNL1        0.0587
      8 CL        138.9699  140.0300  159.7432 Cl      1  UNL1       -0.0824
      9 C         140.5817  138.2431  157.9518 C.3     1  UNL1        0.0484
     10 C         141.3876  137.3496  157.0561 C.3     1  UNL1        0.0987
     11 N         142.7881  137.7321  156.6787 N.am    1  UNL1       -0.2716
     12 C         143.5940  136.8385  155.7830 C.2     1  UNL1        0.2494
     13 O         144.9944  137.2210  155.4056 O.2     1  UNL1       -0.2699
     14 C         143.3826  139.0079  157.1970 C.3     1  UNL1        0.1202
     15 C         142.9994  135.5627  155.2648 C.ar    1  UNL1        0.0566
     16 C         142.3740  135.5260  153.9019 C.ar    1  UNL1        0.0047
     17 C         141.7794  134.2500  153.3837 C.ar    1  UNL1        0.0033
     18 C         141.8102  133.0109  154.2283 C.ar    1  UNL1        0.0377
     19 C         141.3074  131.6185  153.9864 C.ar    1  UNL1        0.0437
     20 C         141.6221  130.7946  155.1998 C.ar    1  UNL1        0.1796
     21 O         142.3194  131.6779  156.1916 O.2     1  UNL1       -0.4504
     22 C         142.4357  133.0476  155.5912 C.ar    1  UNL1        0.1456
     23 C         143.0303  134.3234  156.1094 C.ar    1  UNL1        0.0420
     24 N         140.1893  142.3787  162.2655 N.am    1  UNL1       -0.2973
     25 C         140.1591  142.5818  160.7797 C.2     1  UNL1        0.2477
     26 O         139.3230  143.6785  160.1895 O.2     1  UNL1       -0.2701
     27 H         140.7380  141.6590  162.6529 H       1  UNL1        0.1500
     28 CA        139.3834  143.2722  163.1612 C.3     1  UNL1        0.1127
     29 C         137.8953  143.3577  162.9930 C.2     1  UNL1        0.0685
     30 O         137.2407  144.6890  162.7719 O.co2   1  UNL1       -0.5475
     31 OXT       137.0618  142.1116  163.0460 O.co2   1  UNL1       -0.5475
     32 C         140.0656  144.0803  164.2250 C.3     1  UNL1        0.0517
     33 C         141.1473  142.3306  167.6188 C.ar    1  UNL1        0.1054
     34 C         142.5896  142.0307  167.3360 C.ar    1  UNL1        0.0183
     35 C         143.1905  142.4140  166.0161 C.ar    1  UNL1        0.0010
     36 C         142.3491  143.0973  164.9791 C.ar    1  UNL1       -0.0041
     37 C         140.9069  143.3971  165.2620 C.ar    1  UNL1       -0.0189
     38 C         140.3060  143.0138  166.5818 C.ar    1  UNL1        0.0141
     39 C         139.9455  141.5639  170.2585 C.3     1  UNL1        0.1816
     40 S         140.5464  141.9473  168.9386 S.O2    1  UNL1        0.0104
     41 O         140.2719  143.3922  169.2333 O.2     1  UNL1       -0.1686
     42 O         140.8210  140.5023  168.6440 O.2     1  UNL1       -0.1686
@<TRIPOS>UNITY_ATOM_ATTR
30 1
charge -1
@<TRIPOS>BOND
     1    39    40    1
     2    40    41    2
     3    40    42    2
     4    40    33    1
     5    33    34   ar
     6    34    35   ar
     7    35    36   ar
     8    36    37   ar
     9    37    32    1
    10    28    32    1
    11    28    24    1
    12    24    25   am
    13    25    26    2
    14    25     1    1
    15     1     2   ar
    16     2     3    1
    17     2     4   ar
    18     4     5   ar
    19     5     6   ar
    20     6     7   ar
    21     7     8    1
    22     6     9    1
    23     9    10    1
    24    10    11    1
    25    11    12   am
    26    12    13    2
    27    12    15    1
    28    15    16   ar
    29    16    17   ar
    30    17    18   ar
    31    18    19   ar
    32    19    20   ar
    33    20    21   ar
    34    21    22   ar
    35    22    23   ar
    36    11    14    1
    37    28    29    1
    38    29    30   ar
    39    29    31   ar
    40    37    38   ar
    41    38    33   ar
    42     7     1   ar
    43    23    15   ar
    44    14     5    1
    45    22    18   ar
    46    24    27    1
@<TRIPOS>MOLECULE
*****
 42 46 0 0 0
SMALL
GASTEIGER

@<TRIPOS>ATOM
      1 C         141.4394  138.2190  158.1374 C.ar    1  UNL1        0.0741
      2 C         140.2169  138.9927  157.7414 C.ar    1  UNL1        0.0626
      3 CL        139.8564  139.1353  156.2923 Cl      1  UNL1       -0.0821
      4 C         139.3550  139.6238  158.7943 C.ar    1  UNL1        0.0087
      5 C         139.7155  139.4812  160.2434 C.ar    1  UNL1       -0.0046
      6 C         140.9380  138.7074  160.6394 C.ar    1  UNL1       -0.0120
      7 C         141.8000  138.0763  159.5864 C.ar    1  UNL1        0.0587
      8 CL        143.0225  137.3026  159.9824 Cl      1  UNL1       -0.0824
      9 C         141.2986  138.5648  162.0884 C.3     1  UNL1        0.0484
     10 C         140.4367  139.1959  163.1414 C.3     1  UNL1        0.0987
     11 N         139.2142  139.9696  162.7453 N.am    1  UNL1       -0.2716
     12 C         138.3522  140.6007  163.7984 C.2     1  UNL1        0.2494
     13 O         137.1297  141.3744  163.4023 O.2     1  UNL1       -0.2699
     14 C         138.8536  140.1122  161.2963 C.3     1  UNL1        0.1202
     15 C         138.7128  140.4581  165.2474 C.ar    1  UNL1        0.0566
     16 C         138.1381  139.3330  166.0560 C.ar    1  UNL1        0.0047
     17 C         138.4987  139.1904  167.5051 C.ar    1  UNL1        0.0033
     18 C         139.4339  140.1729  168.1454 C.ar    1  UNL1        0.0377
     19 C         139.9679  140.2864  169.5425 C.ar    1  UNL1        0.0437
     20 C         140.8726  141.4816  169.5974 C.ar    1  UNL1        0.1796
     21 O         140.8977  142.1068  168.2341 O.2     1  UNL1       -0.4504
     22 C         140.0086  141.2980  167.3367 C.ar    1  UNL1        0.1456
     23 C         139.6480  141.4406  165.8878 C.ar    1  UNL1        0.0420
     24 N         141.8798  136.2989  156.4434 N.am    1  UNL1       -0.2973
     25 C         142.3014  137.5879  157.0844 C.2     1  UNL1        0.2477
     26 O         143.5849  138.2458  156.6724 O.2     1  UNL1       -0.2701
     27 H         141.0374  135.8671  156.7138 H       1  UNL1        0.1500
     28 CA        142.7418  135.6679  155.3904 C.3     1  UNL1        0.1127
     29 C         142.4450  135.9019  153.9388 C.2     1  UNL1        0.0685
     30 O         142.4114  137.2998  153.3960 O.co2   1  UNL1       -0.5475
     31 OXT       142.1817  134.7379  153.0300 O.co2   1  UNL1       -0.5475
     32 C         143.9006  134.8028  155.7890 C.3     1  UNL1        0.0517
     33 C         142.3579  131.1467  155.8360 C.ar    1  UNL1        0.1054
     34 C         143.2200  130.4885  156.8722 C.ar    1  UNL1        0.0183
     35 C         144.3090  131.2685  157.5473 C.ar    1  UNL1        0.0010
     36 C         144.5358  132.7066  157.1862 C.ar    1  UNL1       -0.0041
     37 C         143.6737  133.3648  156.1501 C.ar    1  UNL1       -0.0189
     38 C         142.5848  132.5848  155.4750 C.ar    1  UNL1        0.0141
     39 C         140.1799  129.5867  154.4858 C.3     1  UNL1        0.1816
     40 S         141.2689  130.3667  155.1609 S.O2    1  UNL1        0.0104
     41 O         140.7290  131.6341  154.5675 O.2     1  UNL1       -0.1686
     42 O         141.8088  129.0993  155.7544 O.2     1  UNL1       -0.1686
@<TRIPOS>UNITY_ATOM_ATTR
30 1
charge -1
@<TRIPOS>BOND
     1    39    40    1
     2    40    41    2
     3    40    42    2
     4    40    33    1
     5    33    34   ar
     6    34    35   ar
     7    35    36   ar
     8    36    37   ar
     9    37    32    1
    10    28    32    1
    11    28    24    1
    12    24    25   am
    13    25    26    2
    14    25     1    1
    15     1     2   ar
    16     2     3    1
    17     2     4   ar
    18     4     5   ar
    19     5     6   ar
    20     6     7   ar
    21     7     8    1
    22     6     9    1
    23     9    10    1
    24    10    11    1
    25    11    12   am
    26    12    13    2
    27    12    15    1
    28    15    16   ar
    29    16    17   ar
    30    17    18   ar
    31    18    19   ar
    32    19    20   ar
    33    20    21   ar
    34    21    22   ar
    35    22    23   ar
    36    11    14    1
    37    28    29    1
    38    29    30   ar
    39    29    31   ar
    40    37    38   ar
    41    38    33   ar
    42     7     1   ar
    43    23    15   ar
    44    14     5    1
    45    22    18   ar
    46    24    27    1
@<TRIPOS>MOLECULE
*****
 42 46 0 0 0
SMALL
GASTEIGER

@<TRIPOS>ATOM
      1 C         141.4080  141.4609  160.9463 C.ar    1  UNL1        0.0741
      2 C         142.5730  142.1815  160.3351 C.ar    1  UNL1        0.0626
      3 CL        143.0303  143.4899  160.9087 Cl      1  UNL1       -0.0821
      4 C         143.2807  141.5937  159.1503 C.ar    1  UNL1        0.0087
      5 C         142.8234  140.2853  158.5766 C.ar    1  UNL1       -0.0046
      6 C         141.6584  139.5647  159.1878 C.ar    1  UNL1       -0.0120
      7 C         140.9507  140.1525  160.3727 C.ar    1  UNL1        0.0587
      8 CL        139.7857  139.4319  160.9838 Cl      1  UNL1       -0.0824
      9 C         141.2011  138.2564  158.6142 C.3     1  UNL1        0.0484
     10 C         141.9087  137.6686  157.4295 C.3     1  UNL1        0.0987
     11 N         143.0737  138.3892  156.8183 N.am    1  UNL1       -0.2716
     12 C         143.7814  137.8014  155.6334 C.2     1  UNL1        0.2494
     13 O         144.9464  138.5220  155.0223 O.2     1  UNL1       -0.2699
     14 C         143.5310  139.6976  157.3919 C.3     1  UNL1        0.1202
     15 C         143.3241  136.4931  155.0599 C.ar    1  UNL1        0.0566
     16 C         142.3689  136.4741  153.9034 C.ar    1  UNL1        0.0047
     17 C         141.9116  135.1656  153.3298 C.ar    1  UNL1        0.0033
     18 C         142.4094  133.8763  153.9127 C.ar    1  UNL1        0.0377
     19 C         142.1365  132.4440  153.5604 C.ar    1  UNL1        0.0437
     20 C         142.9230  131.5778  154.4991 C.ar    1  UNL1        0.1796
     21 O         143.6819  132.4748  155.4316 O.2     1  UNL1       -0.4504
     22 C         143.3646  133.8953  155.0691 C.ar    1  UNL1        0.1456
     23 C         143.8219  135.2037  155.6427 C.ar    1  UNL1        0.0420
     24 N         139.2950  142.5538  161.9906 N.am    1  UNL1       -0.2973
     25 C         140.7003  142.0487  162.1311 C.2     1  UNL1        0.2477
     26 O         141.3981  142.1313  163.4563 O.2     1  UNL1       -0.2701
     27 H         138.8370  142.4995  161.1208 H       1  UNL1        0.1500
     28 CA        138.5874  143.1415  163.1754 C.3     1  UNL1        0.1127
     29 C         138.7087  144.6072  163.4703 C.2     1  UNL1        0.0685
     30 O         138.7387  145.5987  162.3451 O.co2   1  UNL1       -0.5475
     31 OXT       138.8000  145.0815  164.8905 O.co2   1  UNL1       -0.5475
     32 C         137.7584  142.2636  164.0655 C.3     1  UNL1        0.0517
     33 C         139.7075  139.8396  166.5302 C.ar    1  UNL1        0.1054
     34 C         139.5384  138.5251  165.8277 C.ar    1  UNL1        0.0183
     35 C         138.7759  138.4568  164.5377 C.ar    1  UNL1        0.0010
     36 C         138.1826  139.7030  163.9503 C.ar    1  UNL1       -0.0041
     37 C         138.3517  141.0174  164.6529 C.ar    1  UNL1       -0.0189
     38 C         139.1142  141.0857  165.9428 C.ar    1  UNL1        0.0141
     39 C         141.2325  139.9762  169.1101 C.3     1  UNL1        0.1816
     40 S         140.4700  139.9079  167.8202 S.O2    1  UNL1        0.0104
     41 O         139.1830  139.8200  168.5856 O.2     1  UNL1       -0.1686
     42 O         141.7570  139.9959  167.0548 O.2     1  UNL1       -0.1686
@<TRIPOS>UNITY_ATOM_ATTR
30 1
charge -1
@<TRIPOS>BOND
     1    39    40    1
     2    40    41    2
     3    40    42    2
     4    40    33    1
     5    33    34   ar
     6    34    35   ar
     7    35    36   ar
     8    36    37   ar
     9    37    32    1
    10    28    32    1
    11    28    24    1
    12    24    25   am
    13    25    26    2
    14    25     1    1
    15     1     2   ar
    16     2     3    1
    17     2     4   ar
    18     4     5   ar
    19     5     6   ar
    20     6     7   ar
    21     7     8    1
    22     6     9    1
    23     9    10    1
    24    10    11    1
    25    11    12   am
    26    12    13    2
    27    12    15    1
    28    15    16   ar
    29    16    17   ar
    30    17    18   ar
    31    18    19   ar
    32    19    20   ar
    33    20    21   ar
    34    21    22   ar
    35    22    23   ar
    36    11    14    1
    37    28    29    1
    38    29    30   ar
    39    29    31   ar
    40    37    38   ar
    41    38    33   ar
    42     7     1   ar
    43    23    15   ar
    44    14     5    1
    45    22    18   ar
    46    24    27    1
@<TRIPOS>MOLECULE
*****
 42 46 0 0 0
SMALL
GASTEIGER

@<TRIPOS>ATOM
      1 C         141.2592  142.0601  159.3490 C.ar    1  UNL1        0.0741
      2 C         140.1563  142.1144  158.3337 C.ar    1  UNL1        0.0626
      3 CL        139.2698  143.3218  158.2532 Cl      1  UNL1       -0.0821
      4 C         139.9400  140.9614  157.3990 C.ar    1  UNL1        0.0087
      5 C         140.8265  139.7540  157.4795 C.ar    1  UNL1       -0.0046
      6 C         141.9293  139.6997  158.4948 C.ar    1  UNL1       -0.0120
      7 C         142.1457  140.8528  159.4295 C.ar    1  UNL1        0.0587
      8 CL        143.2485  140.7985  160.4448 Cl      1  UNL1       -0.0824
      9 C         142.8158  138.4924  158.5753 C.3     1  UNL1        0.0484
     10 C         142.5994  137.3394  157.6406 C.3     1  UNL1        0.0987
     11 N         141.4965  137.3937  156.6253 N.am    1  UNL1       -0.2716
     12 C         141.2802  136.2407  155.6905 C.2     1  UNL1        0.2494
     13 O         140.1773  136.2950  154.6753 O.2     1  UNL1       -0.2699
     14 C         140.6101  138.6010  156.5448 C.3     1  UNL1        0.1202
     15 C         142.1667  135.0334  155.7711 C.ar    1  UNL1        0.0566
     16 C         142.2539  134.0882  154.6096 C.ar    1  UNL1        0.0047
     17 C         143.1405  132.8808  154.6902 C.ar    1  UNL1        0.0033
     18 C         143.9397  132.6187  155.9322 C.ar    1  UNL1        0.0377
     19 C         144.8923  131.5198  156.2995 C.ar    1  UNL1        0.0437
     20 C         145.3937  131.7858  157.6880 C.ar    1  UNL1        0.1796
     21 O         144.7510  133.0491  158.1787 O.2     1  UNL1       -0.4504
     22 C         143.8524  133.5639  157.0937 C.ar    1  UNL1        0.1456
     23 C         142.9659  134.7712  157.0131 C.ar    1  UNL1        0.0420
     24 N         140.8988  143.1750  161.6679 N.am    1  UNL1       -0.2973
     25 C         141.4756  143.2132  160.2837 C.2     1  UNL1        0.2477
     26 O         142.2687  144.4044  159.8343 O.2     1  UNL1       -0.2701
     27 H         140.3782  142.3932  161.9628 H       1  UNL1        0.1500
     28 CA        141.1152  144.3280  162.6025 C.3     1  UNL1        0.1127
     29 C         140.0370  145.3538  162.7904 C.2     1  UNL1        0.0685
     30 O         139.9973  146.5696  161.9128 O.co2   1  UNL1       -0.5475
     31 OXT       138.9983  145.1637  163.8559 O.co2   1  UNL1       -0.5475
     32 C         142.4098  144.4554  163.3494 C.3     1  UNL1        0.0517
     33 C         143.7906  140.9381  164.5624 C.ar    1  UNL1        0.1054
     34 C         145.0950  140.8757  163.8242 C.ar    1  UNL1        0.0183
     35 C         145.5042  142.0066  162.9278 C.ar    1  UNL1        0.0010
     36 C         144.6091  143.1998  162.7695 C.ar    1  UNL1       -0.0041
     37 C         143.3049  143.2622  163.5077 C.ar    1  UNL1       -0.0189
     38 C         142.8956  142.1313  164.4041 C.ar    1  UNL1        0.0141
     39 C         142.9722  138.6763  166.3553 C.3     1  UNL1        0.1816
     40 S         143.3814  139.8072  165.4589 S.O2    1  UNL1        0.0104
     41 O         142.1761  140.5874  165.8929 O.2     1  UNL1       -0.1686
     42 O         144.5868  139.0269  165.0249 O.2     1  UNL1       -0.1686
@<TRIPOS>UNITY_ATOM_ATTR
30 1
charge -1
@<TRIPOS>BOND
     1    39    40    1
     2    40    41    2
     3    40    42    2
     4    40    33    1
     5    33    34   ar
     6    34    35   ar
     7    35    36   ar
     8    36    37   ar
     9    37    32    1
    10    28    32    1
    11    28    24    1
    12    24    25   am
    13    25    26    2
    14    25     1    1
    15     1     2   ar
    16     2     3    1
    17     2     4   ar
    18     4     5   ar
    19     5     6   ar
    20     6     7   ar
    21     7     8    1
    22     6     9    1
    23     9    10    1
    24    10    11    1
    25    11    12   am
    26    12    13    2
    27    12    15    1
    28    15    16   ar
    29    16    17   ar
    30    17    18   ar
    31    18    19   ar
    32    19    20   ar
    33    20    21   ar
    34    21    22   ar
    35    22    23   ar
    36    11    14    1
    37    28    29    1
    38    29    30   ar
    39    29    31   ar
    40    37    38   ar
    41    38    33   ar
    42     7     1   ar
    43    23    15   ar
    44    14     5    1
    45    22    18   ar
    46    24    27    1
@<TRIPOS>MOLECULE
*****
 42 46 0 0 0
SMALL
GASTEIGER

@<TRIPOS>ATOM
      1 C         143.8692  140.4309  162.0939 C.ar    1  UNL1        0.0741
      2 C         144.2696  141.5628  161.1947 C.ar    1  UNL1        0.0626
      3 CL        144.7713  142.8476  161.7843 Cl      1  UNL1       -0.0821
      4 C         144.1683  141.4099  159.7060 C.ar    1  UNL1        0.0087
      5 C         143.6666  140.1250  159.1164 C.ar    1  UNL1       -0.0046
      6 C         143.2662  138.9931  160.0156 C.ar    1  UNL1       -0.0120
      7 C         143.3675  139.1461  161.5044 C.ar    1  UNL1        0.0587
      8 CL        142.9671  138.0142  162.4036 Cl      1  UNL1       -0.0824
      9 C         142.7645  137.7084  159.4261 C.3     1  UNL1        0.0484
     10 C         142.6633  137.5554  157.9374 C.3     1  UNL1        0.0987
     11 N         143.0637  138.6873  157.0382 N.am    1  UNL1       -0.2716
     12 C         142.9624  138.5344  155.5494 C.2     1  UNL1        0.2494
     13 O         143.3628  139.6662  154.6502 O.2     1  UNL1       -0.2699
     14 C         143.5654  139.9721  157.6277 C.3     1  UNL1        0.1202
     15 C         142.4607  137.2496  154.9599 C.ar    1  UNL1        0.0566
     16 C         141.1600  137.2245  154.2131 C.ar    1  UNL1        0.0047
     17 C         140.6583  135.9396  153.6236 C.ar    1  UNL1        0.0033
     18 C         141.4574  134.6799  153.7808 C.ar    1  UNL1        0.0377
     19 C         141.2187  133.2749  153.3126 C.ar    1  UNL1        0.0437
     20 C         142.3719  132.4317  153.7700 C.ar    1  UNL1        0.1796
     21 O         143.3232  133.3156  154.5208 O.2     1  UNL1       -0.4504
     22 C         142.7581  134.7050  154.5275 C.ar    1  UNL1        0.1456
     23 C         143.2597  135.9898  155.1170 C.ar    1  UNL1        0.0420
     24 N         142.8677  141.2576  164.3442 N.am    1  UNL1       -0.2973
     25 C         143.9705  140.5839  163.5827 C.2     1  UNL1        0.2477
     26 O         145.1746  140.0630  164.3099 O.2     1  UNL1       -0.2701
     27 H         142.0774  141.5994  163.8669 H       1  UNL1        0.1500
     28 CA        142.9690  141.4105  165.8329 C.3     1  UNL1        0.1127
     29 C         143.6959  142.5848  166.4185 C.2     1  UNL1        0.0685
     30 O         144.4256  143.5391  165.5203 O.co2   1  UNL1       -0.5475
     31 OXT       143.6930  142.8046  167.9023 O.co2   1  UNL1       -0.5475
     32 C         142.3435  140.3892  166.7361 C.3     1  UNL1        0.0517
     33 C         139.1483  139.0065  164.8312 C.ar    1  UNL1        0.1054
     34 C         138.1504  138.9575  165.9501 C.ar    1  UNL1        0.0183
     35 C         138.5502  139.3858  167.3309 C.ar    1  UNL1        0.0010
     36 C         139.9480  139.8630  167.5929 C.ar    1  UNL1       -0.0041
     37 C         140.9458  139.9120  166.4741 C.ar    1  UNL1       -0.0189
     38 C         140.5460  139.4838  165.0932 C.ar    1  UNL1        0.0141
     39 C         138.3487  138.1501  162.0695 C.3     1  UNL1        0.1816
     40 S         138.7485  138.5783  163.4504 S.O2    1  UNL1        0.0104
     41 O         137.8808  139.7953  163.3242 O.2     1  UNL1       -0.1686
     42 O         139.6162  137.3613  163.5766 O.2     1  UNL1       -0.1686
@<TRIPOS>UNITY_ATOM_ATTR
30 1
charge -1
@<TRIPOS>BOND
     1    39    40    1
     2    40    41    2
     3    40    42    2
     4    40    33    1
     5    33    34   ar
     6    34    35   ar
     7    35    36   ar
     8    36    37   ar
     9    37    32    1
    10    28    32    1
    11    28    24    1
    12    24    25   am
    13    25    26    2
    14    25     1    1
    15     1     2   ar
    16     2     3    1
    17     2     4   ar
    18     4     5   ar
    19     5     6   ar
    20     6     7   ar
    21     7     8    1
    22     6     9    1
    23     9    10    1
    24    10    11    1
    25    11    12   am
    26    12    13    2
    27    12    15    1
    28    15    16   ar
    29    16    17   ar
    30    17    18   ar
    31    18    19   ar
    32    19    20   ar
    33    20    21   ar
    34    21    22   ar
    35    22    23   ar
    36    11    14    1
    37    28    29    1
    38    29    30   ar
    39    29    31   ar
    40    37    38   ar
    41    38    33   ar
    42     7     1   ar
    43    23    15   ar
    44    14     5    1
    45    22    18   ar
    46    24    27    1
@<TRIPOS>MOLECULE
*****
 42 46 0 0 0
SMALL
GASTEIGER

@<TRIPOS>ATOM
      1 C         142.0227  142.0913  159.4406 C.ar    1  UNL1        0.0741
      2 C         142.0287  142.5010  157.9976 C.ar    1  UNL1        0.0626
      3 CL        141.9047  143.9497  157.6288 Cl      1  UNL1       -0.0821
      4 C         142.1586  141.4620  156.9236 C.ar    1  UNL1        0.0087
      5 C         142.2826  140.0134  157.2925 C.ar    1  UNL1       -0.0046
      6 C         142.2766  139.6037  158.7354 C.ar    1  UNL1       -0.0120
      7 C         142.1467  140.6427  159.8095 C.ar    1  UNL1        0.0587
      8 CL        142.1407  140.2331  161.2525 Cl      1  UNL1       -0.0824
      9 C         142.4006  138.1551  159.1043 C.3     1  UNL1        0.0484
     10 C         142.5306  137.1162  158.0303 C.3     1  UNL1        0.0987
     11 N         142.5365  137.5258  156.5873 N.am    1  UNL1       -0.2716
     12 C         142.6665  136.4868  155.5132 C.2     1  UNL1        0.2494
     13 O         142.6725  136.8964  154.0702 O.2     1  UNL1       -0.2699
     14 C         142.4126  138.9744  156.2184 C.3     1  UNL1        0.1202
     15 C         142.7905  135.0382  155.8821 C.ar    1  UNL1        0.0566
     16 C         141.7380  134.0612  155.4489 C.ar    1  UNL1        0.0047
     17 C         141.8620  132.6125  155.8178 C.ar    1  UNL1        0.0033
     18 C         143.0385  132.1409  156.6200 C.ar    1  UNL1        0.0377
     19 C         143.4273  130.7846  157.1291 C.ar    1  UNL1        0.0437
     20 C         144.7202  130.9233  157.8770 C.ar    1  UNL1        0.1796
     21 O         145.1303  132.3654  157.8301 O.2     1  UNL1       -0.4504
     22 C         144.0910  133.1179  157.0532 C.ar    1  UNL1        0.1456
     23 C         143.9670  134.5665  156.6843 C.ar    1  UNL1        0.0420
     24 N         140.5980  143.2849  161.2560 N.am    1  UNL1       -0.2973
     25 C         141.8928  143.1304  160.5147 C.2     1  UNL1        0.2477
     26 O         143.0577  144.0149  160.8474 O.2     1  UNL1       -0.2701
     27 H         139.8334  142.7044  161.0376 H       1  UNL1        0.1500
     28 CA        140.4681  144.3239  162.3300 C.3     1  UNL1        0.1127
     29 C         139.4211  145.3921  162.2174 C.2     1  UNL1        0.0685
     30 O         137.9798  145.0589  162.4657 O.co2   1  UNL1       -0.5475
     31 OXT       139.8154  146.7937  161.8566 O.co2   1  UNL1       -0.5475
     32 C         141.3852  144.2947  163.5167 C.3     1  UNL1        0.0517
     33 C         140.7099  140.7802  165.2320 C.ar    1  UNL1        0.1054
     34 C         142.0842  140.4370  165.7257 C.ar    1  UNL1        0.0183
     35 C         143.2255  141.3797  165.4830 C.ar    1  UNL1        0.0010
     36 C         142.9924  142.6656  164.7466 C.ar    1  UNL1       -0.0041
     37 C         141.6182  143.0088  164.2530 C.ar    1  UNL1       -0.0189
     38 C         140.4769  142.0661  164.4957 C.ar    1  UNL1        0.0141
     39 C         138.4275  138.8948  165.7174 C.3     1  UNL1        0.1816
     40 S         139.5687  139.8375  165.4747 S.O2    1  UNL1        0.0104
     41 O         140.5219  138.6794  165.4582 O.2     1  UNL1       -0.1686
     42 O         138.6156  140.9956  165.4913 O.2     1  UNL1       -0.1686
@<TRIPOS>UNITY_ATOM_ATTR
30 1
charge -1
@<TRIPOS>BOND
     1    39    40    1
     2    40    41    2
     3    40    42    2
     4    40    33    1
     5    33    34   ar
     6    34    35   ar
     7    35    36   ar
     8    36    37   ar
     9    37    32    1
    10    28    32    1
    11    28    24    1
    12    24    25   am
    13    25    26    2
    14    25     1    1
    15     1     2   ar
    16     2     3    1
    17     2     4   ar
    18     4     5   ar
    19     5     6   ar
    20     6     7   ar
    21     7     8    1
    22     6     9    1
    23     9    10    1
    24    10    11    1
    25    11    12   am
    26    12    13    2
    27    12    15    1
    28    15    16   ar
    29    16    17   ar
    30    17    18   ar
    31    18    19   ar
    32    19    20   ar
    33    20    21   ar
    34    21    22   ar
    35    22    23   ar
    36    11    14    1
    37    28    29    1
    38    29    30   ar
    39    29    31   ar
    40    37    38   ar
    41    38    33   ar
    42     7     1   ar
    43    23    15   ar
    44    14     5    1
    45    22    18   ar
    46    24    27    1
@<TRIPOS>MOLECULE
*****
 42 46 0 0 0
SMALL
GASTEIGER

@<TRIPOS>ATOM
      1 C         138.5507  141.6955  158.5008 C.ar    1  UNL1        0.0741
      2 C         139.4252  142.9045  158.3477 C.ar    1  UNL1        0.0626
      3 CL        139.5274  143.5927  157.0187 Cl      1  UNL1       -0.0821
      4 C         140.1974  143.4254  159.5234 C.ar    1  UNL1        0.0087
      5 C         140.0951  142.7372  160.8523 C.ar    1  UNL1       -0.0046
      6 C         139.2206  141.5281  161.0055 C.ar    1  UNL1       -0.0120
      7 C         138.4484  141.0073  159.8296 C.ar    1  UNL1        0.0587
      8 CL        137.5739  139.7982  159.9828 Cl      1  UNL1       -0.0824
      9 C         139.1183  140.8400  162.3343 C.3     1  UNL1        0.0484
     10 C         139.8905  141.3608  163.5100 C.3     1  UNL1        0.0987
     11 N         140.7650  142.5699  163.3569 N.am    1  UNL1       -0.2716
     12 C         141.5372  143.0907  164.5327 C.2     1  UNL1        0.2494
     13 O         142.4117  144.2998  164.3796 O.2     1  UNL1       -0.2699
     14 C         140.8673  143.2581  162.0280 C.3     1  UNL1        0.1202
     15 C         141.4349  142.4026  165.8616 C.ar    1  UNL1        0.0566
     16 C         140.4157  142.8559  166.8645 C.ar    1  UNL1        0.0047
     17 C         140.3135  142.1676  168.1934 C.ar    1  UNL1        0.0033
     18 C         141.2303  141.0261  168.5193 C.ar    1  UNL1        0.0377
     19 C         141.3627  140.1615  169.7379 C.ar    1  UNL1        0.0437
     20 C         142.4636  139.1738  169.4881 C.ar    1  UNL1        0.1796
     21 O         143.0117  139.4280  168.1152 O.2     1  UNL1       -0.4504
     22 C         142.2495  140.5728  167.5164 C.ar    1  UNL1        0.1456
     23 C         142.3518  141.2610  166.1876 C.ar    1  UNL1        0.0420
     24 N         136.5678  141.9130  156.8362 N.am    1  UNL1       -0.2973
     25 C         137.7784  141.1746  157.3250 C.2     1  UNL1        0.2477
     26 O         138.2170  139.9153  156.6380 O.2     1  UNL1       -0.2701
     27 H         136.2799  142.7395  157.2871 H       1  UNL1        0.1500
     28 CA        135.7956  141.3921  155.6605 C.3     1  UNL1        0.1127
     29 C         135.9282  142.0566  154.3222 C.2     1  UNL1        0.0685
     30 O         135.5669  141.3075  153.0739 O.co2   1  UNL1       -0.5475
     31 OXT       136.4220  143.4702  154.2323 O.co2   1  UNL1       -0.5475
     32 C         134.8909  140.2067  155.8229 C.3     1  UNL1        0.0517
     33 C         131.0992  139.7148  156.8863 C.ar    1  UNL1        0.1054
     34 C         130.4370  140.7944  156.0825 C.ar    1  UNL1        0.0183
     35 C         131.2595  141.6781  155.1922 C.ar    1  UNL1        0.0010
     36 C         132.7441  141.4822  155.1057 C.ar    1  UNL1       -0.0041
     37 C         133.4063  140.4026  155.9095 C.ar    1  UNL1       -0.0189
     38 C         132.5838  139.5189  156.7998 C.ar    1  UNL1        0.0141
     39 C         129.4542  137.9475  158.6669 C.3     1  UNL1        0.1816
     40 S         130.2767  138.8312  157.7766 S.O2    1  UNL1        0.0104
     41 O         131.5248  138.3609  158.4629 O.2     1  UNL1       -0.1686
     42 O         129.0285  139.3014  157.0903 O.2     1  UNL1       -0.1686
@<TRIPOS>UNITY_ATOM_ATTR
30 1
charge -1
@<TRIPOS>BOND
     1    39    40    1
     2    40    41    2
     3    40    42    2
     4    40    33    1
     5    33    34   ar
     6    34    35   ar
     7    35    36   ar
     8    36    37   ar
     9    37    32    1
    10    28    32    1
    11    28    24    1
    12    24    25   am
    13    25    26    2
    14    25     1    1
    15     1     2   ar
    16     2     3    1
    17     2     4   ar
    18     4     5   ar
    19     5     6   ar
    20     6     7   ar
    21     7     8    1
    22     6     9    1
    23     9    10    1
    24    10    11    1
    25    11    12   am
    26    12    13    2
    27    12    15    1
    28    15    16   ar
    29    16    17   ar
    30    17    18   ar
    31    18    19   ar
    32    19    20   ar
    33    20    21   ar
    34    21    22   ar
    35    22    23   ar
    36    11    14    1
    37    28    29    1
    38    29    30   ar
    39    29    31   ar
    40    37    38   ar
    41    38    33   ar
    42     7     1   ar
    43    23    15   ar
    44    14     5    1
    45    22    18   ar
    46    24    27    1
