@<TRIPOS>MOLECULE
*****
 38 41 0 0 0
SMALL
GASTEIGER

@<TRIPOS>ATOM
      1 N         140.2972  139.0005  163.2881 N.3     1  UNL1       -0.2711
      2 C         140.1978  137.8082  162.3834 C.3     1  UNL1        0.0933
      3 C         140.6503  138.6484  161.2262 C.3     1  UNL1        0.1035
      4 C         140.7497  139.8407  162.1309 C.3     1  UNL1        0.0933
      5 N         138.4859  139.5320  168.6991 N.3     1  UNL1       -0.3200
      6 C         139.5481  139.7474  167.6620 C.3     1  UNL1        0.0582
      7 C         140.8462  140.1700  167.0406 C.3     1  UNL1        0.0198
      8 C         141.0959  139.9210  165.5826 C.3     1  UNL1        0.0176
      9 C         140.0474  139.2494  164.7461 C.3     1  UNL1        0.0577
     10 C         138.7493  138.8268  165.3675 C.3     1  UNL1        0.0176
     11 C         138.4996  139.0758  166.8255 C.3     1  UNL1        0.0198
     12 H         138.8076  139.8961  169.5959 H       1  UNL1        0.1191
     13 H         138.2934  138.5342  168.7865 H       1  UNL1        0.1191
     14 C         140.2276  140.3442  168.8587 C.ar    1  UNL1       -0.0098
     15 C         139.6764  141.5872  169.4919 C.ar    1  UNL1       -0.0030
     16 C         140.3560  142.1840  170.6886 C.ar    1  UNL1       -0.0003
     17 C         141.5868  141.5377  171.2520 C.ar    1  UNL1       -0.0000
     18 C         142.1380  140.2947  170.6188 C.ar    1  UNL1       -0.0003
     19 C         141.4585  139.6980  169.4221 C.ar    1  UNL1       -0.0030
     20 N         140.9001  138.3994  159.7683 N.am    1  UNL1       -0.3018
     21 C         139.8286  138.6985  158.7621 C.2     1  UNL1        0.2426
     22 O         138.5074  139.2464  159.2137 O.2     1  UNL1       -0.2733
     23 H         141.7672  138.0398  159.4718 H       1  UNL1        0.1495
     24 C         140.0784  138.4495  157.3040 C.3     1  UNL1        0.1759
     25 N         140.5368  137.0982  156.8417 N.am    1  UNL1       -0.2931
     26 C         141.9977  136.7579  156.8516 C.2     1  UNL1        0.2462
     27 O         143.0001  137.7690  157.3239 O.2     1  UNL1       -0.2701
     28 H         139.8790  136.4346  156.5318 H       1  UNL1        0.1502
     29 C         142.4562  135.4067  156.3893 C.ar    1  UNL1        0.0533
     30 C         141.9251  134.8317  155.1097 C.ar    1  UNL1        0.0045
     31 C         142.3836  133.4804  154.6475 C.ar    1  UNL1        0.0001
     32 C         143.3732  132.7040  155.4647 C.ar    1  UNL1        0.0039
     33 C         143.9043  133.2790  156.7443 C.ar    1  UNL1        0.0716
     34 C         143.4458  134.6303  157.2066 C.ar    1  UNL1        0.0084
     35 C         144.8940  132.5026  157.5616 C.3     1  UNL1        0.4186
     36 F         145.8836  131.7263  158.3788 F       1  UNL1       -0.1659
     37 F         144.7432  133.4892  158.6814 F       1  UNL1       -0.1659
     38 F         145.0447  131.5161  156.4418 F       1  UNL1       -0.1659
@<TRIPOS>BOND
     1     6     5    1
     2     6    14    1
     3    14    15   ar
     4    15    16   ar
     5    16    17   ar
     6    17    18   ar
     7    18    19   ar
     8     6     7    1
     9     7     8    1
    10     8     9    1
    11     9     1    1
    12     1     2    1
    13     2     3    1
    14     3    20    1
    15    20    21   am
    16    21    22    2
    17    21    24    1
    18    24    25    1
    19    25    26   am
    20    26    27    2
    21    26    29    1
    22    29    30   ar
    23    30    31   ar
    24    31    32   ar
    25    32    33   ar
    26    33    35    1
    27    35    36    1
    28    35    37    1
    29    35    38    1
    30    33    34   ar
    31     3     4    1
    32     9    10    1
    33    10    11    1
    34    11     6    1
    35    19    14   ar
    36     4     1    1
    37    34    29   ar
    38     5    12    1
    39     5    13    1
    40    20    23    1
    41    25    28    1
@<TRIPOS>MOLECULE
*****
 38 41 0 0 0
SMALL
GASTEIGER

@<TRIPOS>ATOM
      1 N         142.6366  138.5751  163.3313 N.3     1  UNL1       -0.2711
      2 C         141.7782  137.8387  162.3459 C.3     1  UNL1        0.0933
      3 C         142.8283  138.0256  161.2913 C.3     1  UNL1        0.1035
      4 C         143.6867  138.7620  162.2767 C.3     1  UNL1        0.0933
      5 N         142.8147  139.4060  168.9987 N.3     1  UNL1       -0.3200
      6 C         142.2298  139.7408  167.6585 C.3     1  UNL1        0.0582
      7 C         141.3697  140.3986  166.6206 C.3     1  UNL1        0.0198
      8 C         141.5053  140.0100  165.1781 C.3     1  UNL1        0.0176
      9 C         142.5010  138.9636  164.7737 C.3     1  UNL1        0.0577
     10 C         143.3611  138.3058  165.8116 C.3     1  UNL1        0.0176
     11 C         143.2256  138.6944  167.2541 C.3     1  UNL1        0.0198
     12 H         142.3652  139.9735  169.7172 H       1  UNL1        0.1191
     13 H         143.8163  139.5988  168.9903 H       1  UNL1        0.1191
     14 C         141.4372  140.6709  168.5284 C.ar    1  UNL1       -0.0098
     15 C         140.1463  140.2104  169.1379 C.ar    1  UNL1       -0.0030
     16 C         139.3538  141.1406  170.0078 C.ar    1  UNL1       -0.0003
     17 C         139.8521  142.5312  170.2681 C.ar    1  UNL1       -0.0000
     18 C         141.1430  142.9917  169.6587 C.ar    1  UNL1       -0.0003
     19 C         141.9356  142.0616  168.7888 C.ar    1  UNL1       -0.0030
     20 N         142.9639  137.6370  159.8489 N.am    1  UNL1       -0.3018
     21 C         142.6879  138.6438  158.7718 C.2     1  UNL1        0.2426
     22 O         142.2763  140.0392  159.1371 O.2     1  UNL1       -0.2733
     23 H         143.2340  136.7212  159.6091 H       1  UNL1        0.1495
     24 C         142.8234  138.2552  157.3293 C.3     1  UNL1        0.1759
     25 N         143.2900  136.8771  156.9645 N.am    1  UNL1       -0.2931
     26 C         142.3369  135.9047  156.3352 C.2     1  UNL1        0.2462
     27 O         140.9172  136.3105  156.0707 O.2     1  UNL1       -0.2701
     28 H         144.2218  136.6109  157.1381 H       1  UNL1        0.1502
     29 C         142.8034  134.5266  155.9704 C.ar    1  UNL1        0.0533
     30 C         142.4876  133.9616  154.6172 C.ar    1  UNL1        0.0045
     31 C         142.9542  132.5834  154.2525 C.ar    1  UNL1        0.0001
     32 C         143.7366  131.7704  155.2408 C.ar    1  UNL1        0.0039
     33 C         144.0524  132.3354  156.5939 C.ar    1  UNL1        0.0716
     34 C         143.5858  133.7135  156.9587 C.ar    1  UNL1        0.0084
     35 C         144.8348  131.5223  157.5822 C.3     1  UNL1        0.4186
     36 F         145.6172  130.7092  158.5705 F       1  UNL1       -0.1659
     37 F         144.3777  130.2628  156.9079 F       1  UNL1       -0.1659
     38 F         145.2919  132.7818  158.2566 F       1  UNL1       -0.1659
@<TRIPOS>BOND
     1     6     5    1
     2     6    14    1
     3    14    15   ar
     4    15    16   ar
     5    16    17   ar
     6    17    18   ar
     7    18    19   ar
     8     6     7    1
     9     7     8    1
    10     8     9    1
    11     9     1    1
    12     1     2    1
    13     2     3    1
    14     3    20    1
    15    20    21   am
    16    21    22    2
    17    21    24    1
    18    24    25    1
    19    25    26   am
    20    26    27    2
    21    26    29    1
    22    29    30   ar
    23    30    31   ar
    24    31    32   ar
    25    32    33   ar
    26    33    35    1
    27    35    36    1
    28    35    37    1
    29    35    38    1
    30    33    34   ar
    31     3     4    1
    32     9    10    1
    33    10    11    1
    34    11     6    1
    35    19    14   ar
    36     4     1    1
    37    34    29   ar
    38     5    12    1
    39     5    13    1
    40    20    23    1
    41    25    28    1
@<TRIPOS>MOLECULE
*****
 38 41 0 0 0
SMALL
GASTEIGER

@<TRIPOS>ATOM
      1 N         144.3968  142.6617  158.8879 N.3     1  UNL1       -0.2711
      2 C         143.0418  143.2439  159.1615 C.3     1  UNL1        0.0933
      3 C         143.2274  142.9871  160.6276 C.3     1  UNL1        0.1035
      4 C         144.5824  142.4049  160.3540 C.3     1  UNL1        0.0933
      5 N         146.7618  141.3591  153.8330 N.3     1  UNL1       -0.3200
      6 C         146.8776  141.9714  155.1975 C.3     1  UNL1        0.0582
      7 C         147.4736  142.6738  156.3813 C.3     1  UNL1        0.0198
      8 C         146.6467  142.9039  157.6114 C.3     1  UNL1        0.0176
      9 C         145.2237  142.4316  157.6578 C.3     1  UNL1        0.0577
     10 C         144.6277  141.7292  156.4740 C.3     1  UNL1        0.0176
     11 C         145.4546  141.4990  155.2439 C.3     1  UNL1        0.0198
     12 H         147.6488  141.4586  153.3393 H       1  UNL1        0.1191
     13 H         146.0260  141.8330  153.3091 H       1  UNL1        0.1191
     14 C         148.2604  142.2311  154.6773 C.ar    1  UNL1       -0.0098
     15 C         148.4594  143.1281  153.4917 C.ar    1  UNL1       -0.0030
     16 C         149.8421  143.3877  152.9715 C.ar    1  UNL1       -0.0003
     17 C         151.0258  142.7504  153.6369 C.ar    1  UNL1       -0.0000
     18 C         150.8267  141.8533  154.8225 C.ar    1  UNL1       -0.0003
     19 C         149.4440  141.5937  155.3427 C.ar    1  UNL1       -0.0030
     20 N         142.4005  143.2172  161.8578 N.am    1  UNL1       -0.3018
     21 C         142.8390  144.2250  162.8785 C.2     1  UNL1        0.2426
     22 O         144.1044  145.0027  162.6693 O.2     1  UNL1       -0.2733
     23 H         141.5699  142.7068  161.9952 H       1  UNL1        0.1495
     24 C         142.0120  144.4551  164.1088 C.3     1  UNL1        0.1759
     25 N         141.5182  143.2871  164.9098 N.am    1  UNL1       -0.2931
     26 C         140.1154  142.7895  164.7237 C.2     1  UNL1        0.2462
     27 O         139.2065  143.4600  163.7367 O.2     1  UNL1       -0.2701
     28 H         142.1147  142.8470  165.5576 H       1  UNL1        0.1502
     29 C         139.6215  141.6214  165.5247 C.ar    1  UNL1        0.0533
     30 C         138.6522  140.6513  164.9170 C.ar    1  UNL1        0.0045
     31 C         138.1583  139.4833  165.7181 C.ar    1  UNL1        0.0001
     32 C         138.6338  139.2852  167.1269 C.ar    1  UNL1        0.0039
     33 C         139.6031  140.2553  167.7346 C.ar    1  UNL1        0.0716
     34 C         140.0970  141.4234  166.9336 C.ar    1  UNL1        0.0084
     35 C         140.0786  140.0573  169.1434 C.3     1  UNL1        0.4186
     36 F         140.5540  139.8592  170.5522 F       1  UNL1       -0.1659
     37 F         138.7619  140.5586  169.6583 F       1  UNL1       -0.1659
     38 F         141.3952  139.5559  168.6286 F       1  UNL1       -0.1659
@<TRIPOS>BOND
     1     6     5    1
     2     6    14    1
     3    14    15   ar
     4    15    16   ar
     5    16    17   ar
     6    17    18   ar
     7    18    19   ar
     8     6     7    1
     9     7     8    1
    10     8     9    1
    11     9     1    1
    12     1     2    1
    13     2     3    1
    14     3    20    1
    15    20    21   am
    16    21    22    2
    17    21    24    1
    18    24    25    1
    19    25    26   am
    20    26    27    2
    21    26    29    1
    22    29    30   ar
    23    30    31   ar
    24    31    32   ar
    25    32    33   ar
    26    33    35    1
    27    35    36    1
    28    35    37    1
    29    35    38    1
    30    33    34   ar
    31     3     4    1
    32     9    10    1
    33    10    11    1
    34    11     6    1
    35    19    14   ar
    36     4     1    1
    37    34    29   ar
    38     5    12    1
    39     5    13    1
    40    20    23    1
    41    25    28    1
@<TRIPOS>MOLECULE
*****
 38 41 0 0 0
SMALL
GASTEIGER

@<TRIPOS>ATOM
      1 N         142.2006  139.2142  162.8409 N.3     1  UNL1       -0.2711
      2 C         141.8247  139.9850  161.6102 C.3     1  UNL1        0.0933
      3 C         142.0772  138.7679  160.7707 C.3     1  UNL1        0.1035
      4 C         142.4530  137.9971  162.0014 C.3     1  UNL1        0.0933
      5 N         142.9133  139.5338  168.5182 N.3     1  UNL1       -0.3200
      6 C         142.4623  140.1610  167.2324 C.3     1  UNL1        0.0582
      7 C         141.9010  141.1738  166.2790 C.3     1  UNL1        0.0198
      8 C         141.8137  140.8583  164.8151 C.3     1  UNL1        0.0176
      9 C         142.2878  139.5298  164.3048 C.3     1  UNL1        0.0577
     10 C         142.8491  138.5170  165.2582 C.3     1  UNL1        0.0176
     11 C         142.9364  138.8325  166.7220 C.3     1  UNL1        0.0198
     12 H         142.7580  140.1856  169.2872 H       1  UNL1        0.1191
     13 H         143.9067  139.3104  168.4573 H       1  UNL1        0.1191
     14 C         142.1448  141.2717  168.1894 C.ar    1  UNL1       -0.0098
     15 C         140.7978  141.9306  168.1534 C.ar    1  UNL1       -0.0030
     16 C         140.4805  143.0412  169.1104 C.ar    1  UNL1       -0.0003
     17 C         141.5101  143.4929  170.1033 C.ar    1  UNL1       -0.0000
     18 C         142.8571  142.8339  170.1392 C.ar    1  UNL1       -0.0003
     19 C         143.1745  141.7233  169.1823 C.ar    1  UNL1       -0.0030
     20 N         141.9899  138.4524  159.3069 N.am    1  UNL1       -0.3018
     21 C         140.6518  138.3866  158.6323 C.2     1  UNL1        0.2426
     22 O         139.4009  138.6364  159.4215 O.2     1  UNL1       -0.2733
     23 H         142.8109  138.2884  158.7889 H       1  UNL1        0.1495
     24 C         140.5646  138.0710  157.1684 C.3     1  UNL1        0.1759
     25 N         140.8624  136.6840  156.6812 N.am    1  UNL1       -0.2931
     26 C         142.2840  136.2227  156.5542 C.2     1  UNL1        0.2462
     27 O         143.4079  137.1486  156.9146 O.2     1  UNL1       -0.2701
     28 H         140.1247  136.0764  156.4447 H       1  UNL1        0.1502
     29 C         142.5818  134.8357  156.0670 C.ar    1  UNL1        0.0533
     30 C         143.8492  134.1502  156.4840 C.ar    1  UNL1        0.0045
     31 C         144.1469  132.7632  155.9967 C.ar    1  UNL1        0.0001
     32 C         143.1774  132.0616  155.0924 C.ar    1  UNL1        0.0039
     33 C         141.9100  132.7471  154.6754 C.ar    1  UNL1        0.0716
     34 C         141.6122  134.1341  155.1627 C.ar    1  UNL1        0.0084
     35 C         140.9404  132.0455  153.7712 C.3     1  UNL1        0.4186
     36 F         139.9708  131.3439  152.8669 F       1  UNL1       -0.1659
     37 F         141.5622  132.7175  152.5830 F       1  UNL1       -0.1659
     38 F         140.3186  131.3735  154.9593 F       1  UNL1       -0.1659
@<TRIPOS>BOND
     1     6     5    1
     2     6    14    1
     3    14    15   ar
     4    15    16   ar
     5    16    17   ar
     6    17    18   ar
     7    18    19   ar
     8     6     7    1
     9     7     8    1
    10     8     9    1
    11     9     1    1
    12     1     2    1
    13     2     3    1
    14     3    20    1
    15    20    21   am
    16    21    22    2
    17    21    24    1
    18    24    25    1
    19    25    26   am
    20    26    27    2
    21    26    29    1
    22    29    30   ar
    23    30    31   ar
    24    31    32   ar
    25    32    33   ar
    26    33    35    1
    27    35    36    1
    28    35    37    1
    29    35    38    1
    30    33    34   ar
    31     3     4    1
    32     9    10    1
    33    10    11    1
    34    11     6    1
    35    19    14   ar
    36     4     1    1
    37    34    29   ar
    38     5    12    1
    39     5    13    1
    40    20    23    1
    41    25    28    1
@<TRIPOS>MOLECULE
*****
 38 41 0 0 0
SMALL
GASTEIGER

@<TRIPOS>ATOM
      1 N         144.5717  142.6300  158.6184 N.3     1  UNL1       -0.2711
      2 C         143.2558  143.3006  158.8802 C.3     1  UNL1        0.0933
      3 C         143.3627  142.9434  160.3330 C.3     1  UNL1        0.1035
      4 C         144.6786  142.2728  160.0713 C.3     1  UNL1        0.0933
      5 N         147.0591  141.3424  153.6188 N.3     1  UNL1       -0.3200
      6 C         147.1366  141.9652  154.9812 C.3     1  UNL1        0.0582
      7 C         147.6958  142.6863  156.1716 C.3     1  UNL1        0.0198
      8 C         146.8409  142.9079  157.3841 C.3     1  UNL1        0.0176
      9 C         145.4267  142.4084  157.4060 C.3     1  UNL1        0.0577
     10 C         144.8674  141.6873  156.2156 C.3     1  UNL1        0.0176
     11 C         145.7223  141.4656  155.0032 C.3     1  UNL1        0.0198
     12 H         147.9535  141.4560  153.1417 H       1  UNL1        0.1191
     13 H         146.3247  141.7986  153.0776 H       1  UNL1        0.1191
     14 C         148.5240  142.2484  154.4861 C.ar    1  UNL1       -0.0098
     15 C         148.7356  143.2190  153.3623 C.ar    1  UNL1       -0.0030
     16 C         150.1229  143.5022  152.8672 C.ar    1  UNL1       -0.0003
     17 C         151.2986  142.8147  153.4959 C.ar    1  UNL1       -0.0000
     18 C         151.0869  141.8441  154.6197 C.ar    1  UNL1       -0.0003
     19 C         149.6996  141.5609  155.1148 C.ar    1  UNL1       -0.0030
     20 N         142.5077  143.1651  161.5455 N.am    1  UNL1       -0.3018
     21 C         142.9373  144.1444  162.5972 C.2     1  UNL1        0.2426
     22 O         144.2218  144.9022  162.4367 O.2     1  UNL1       -0.2733
     23 H         141.6646  142.6677  161.6509 H       1  UNL1        0.1495
     24 C         142.0823  144.3661  163.8097 C.3     1  UNL1        0.1759
     25 N         141.9034  143.2652  164.8127 N.am    1  UNL1       -0.2931
     26 C         143.0789  142.7730  165.6037 C.2     1  UNL1        0.2462
     27 O         144.4334  143.3817  165.3918 O.2     1  UNL1       -0.2701
     28 H         141.0144  142.8656  164.9517 H       1  UNL1        0.1502
     29 C         142.9000  141.6721  166.6067 C.ar    1  UNL1        0.0533
     30 C         142.9997  140.2394  166.1736 C.ar    1  UNL1        0.0045
     31 C         142.8208  139.1386  167.1767 C.ar    1  UNL1        0.0001
     32 C         142.5422  139.4703  168.6127 C.ar    1  UNL1        0.0039
     33 C         142.4426  140.9030  169.0458 C.ar    1  UNL1        0.0716
     34 C         142.6215  142.0038  168.0428 C.ar    1  UNL1        0.0084
     35 C         142.1640  141.2347  170.4819 C.3     1  UNL1        0.4186
     36 F         141.8855  141.5664  171.9180 F       1  UNL1       -0.1659
     37 F         142.9537  142.5024  170.3423 F       1  UNL1       -0.1659
     38 F         141.3744  139.9670  170.6216 F       1  UNL1       -0.1659
@<TRIPOS>BOND
     1     6     5    1
     2     6    14    1
     3    14    15   ar
     4    15    16   ar
     5    16    17   ar
     6    17    18   ar
     7    18    19   ar
     8     6     7    1
     9     7     8    1
    10     8     9    1
    11     9     1    1
    12     1     2    1
    13     2     3    1
    14     3    20    1
    15    20    21   am
    16    21    22    2
    17    21    24    1
    18    24    25    1
    19    25    26   am
    20    26    27    2
    21    26    29    1
    22    29    30   ar
    23    30    31   ar
    24    31    32   ar
    25    32    33   ar
    26    33    35    1
    27    35    36    1
    28    35    37    1
    29    35    38    1
    30    33    34   ar
    31     3     4    1
    32     9    10    1
    33    10    11    1
    34    11     6    1
    35    19    14   ar
    36     4     1    1
    37    34    29   ar
    38     5    12    1
    39     5    13    1
    40    20    23    1
    41    25    28    1
@<TRIPOS>MOLECULE
*****
 38 41 0 0 0
SMALL
GASTEIGER

@<TRIPOS>ATOM
      1 N         144.1577  142.4639  158.0226 N.3     1  UNL1       -0.2711
      2 C         142.9892  143.3708  158.2716 C.3     1  UNL1        0.0933
      3 C         142.7638  142.7153  159.6018 C.3     1  UNL1        0.1035
      4 C         143.9324  141.8084  159.3528 C.3     1  UNL1        0.0933
      5 N         147.1901  141.3647  153.2857 N.3     1  UNL1       -0.3200
      6 C         147.1148  141.9308  154.6728 C.3     1  UNL1        0.0582
      7 C         147.5378  142.5990  155.9473 C.3     1  UNL1        0.0198
      8 C         146.5521  142.7767  157.0639 C.3     1  UNL1        0.0176
      9 C         145.1434  142.2862  156.9060 C.3     1  UNL1        0.0577
     10 C         144.7204  141.6180  155.6314 C.3     1  UNL1        0.0176
     11 C         145.7060  141.4403  154.5148 C.3     1  UNL1        0.0198
     12 H         148.1327  141.4917  152.9174 H       1  UNL1        0.1191
     13 H         146.5222  141.8476  152.6847 H       1  UNL1        0.1191
     14 C         148.5497  142.2247  154.3490 C.ar    1  UNL1       -0.0098
     15 C         149.6451  141.5967  155.1587 C.ar    1  UNL1       -0.0030
     16 C         151.0799  141.8906  154.8349 C.ar    1  UNL1       -0.0003
     17 C         151.4193  142.8125  153.7014 C.ar    1  UNL1       -0.0000
     18 C         150.3239  143.4405  152.8916 C.ar    1  UNL1       -0.0003
     19 C         148.8891  143.1466  153.2154 C.ar    1  UNL1       -0.0030
     20 N         141.7782  142.8930  160.7184 N.am    1  UNL1       -0.3018
     21 C         142.0910  143.8212  161.8544 C.2     1  UNL1        0.2426
     22 O         143.3895  144.5719  161.8737 O.2     1  UNL1       -0.2733
     23 H         140.9259  142.4003  160.7058 H       1  UNL1        0.1495
     24 C         141.1053  143.9989  162.9711 C.3     1  UNL1        0.1759
     25 N         140.9452  142.9269  164.0078 N.am    1  UNL1       -0.2931
     26 C         140.0304  143.1443  165.1765 C.2     1  UNL1        0.2462
     27 O         139.2755  144.4338  165.3083 O.2     1  UNL1       -0.2701
     28 H         141.4407  142.0805  163.9213 H       1  UNL1        0.1502
     29 C         139.8703  142.0722  166.2133 C.ar    1  UNL1        0.0533
     30 C         140.3655  142.3004  167.6107 C.ar    1  UNL1        0.0045
     31 C         140.2054  141.2282  168.6475 C.ar    1  UNL1        0.0001
     32 C         139.5502  139.9280  168.2869 C.ar    1  UNL1        0.0039
     33 C         139.0550  139.6998  166.8894 C.ar    1  UNL1        0.0716
     34 C         139.2151  140.7720  165.8527 C.ar    1  UNL1        0.0084
     35 C         138.3998  138.3996  166.5289 C.3     1  UNL1        0.4186
     36 F         137.7446  137.0993  166.1683 F       1  UNL1       -0.1659
     37 F         137.3147  138.6690  167.5288 F       1  UNL1       -0.1659
     38 F         139.4849  138.1301  165.5289 F       1  UNL1       -0.1659
@<TRIPOS>BOND
     1     6     5    1
     2     6    14    1
     3    14    15   ar
     4    15    16   ar
     5    16    17   ar
     6    17    18   ar
     7    18    19   ar
     8     6     7    1
     9     7     8    1
    10     8     9    1
    11     9     1    1
    12     1     2    1
    13     2     3    1
    14     3    20    1
    15    20    21   am
    16    21    22    2
    17    21    24    1
    18    24    25    1
    19    25    26   am
    20    26    27    2
    21    26    29    1
    22    29    30   ar
    23    30    31   ar
    24    31    32   ar
    25    32    33   ar
    26    33    35    1
    27    35    36    1
    28    35    37    1
    29    35    38    1
    30    33    34   ar
    31     3     4    1
    32     9    10    1
    33    10    11    1
    34    11     6    1
    35    19    14   ar
    36     4     1    1
    37    34    29   ar
    38     5    12    1
    39     5    13    1
    40    20    23    1
    41    25    28    1
@<TRIPOS>MOLECULE
*****
 38 41 0 0 0
SMALL
GASTEIGER

@<TRIPOS>ATOM
      1 N         143.3137  139.6450  163.0719 N.3     1  UNL1       -0.2711
      2 C         143.8733  138.5821  162.1735 C.3     1  UNL1        0.0933
      3 C         143.7709  139.5162  161.0044 C.3     1  UNL1        0.1035
      4 C         143.2113  140.5791  161.9028 C.3     1  UNL1        0.0933
      5 N         142.6518  139.2187  168.7483 N.3     1  UNL1       -0.3200
      6 C         142.3437  139.9181  167.4575 C.3     1  UNL1        0.0582
      7 C         141.7565  140.9088  166.4965 C.3     1  UNL1        0.0198
      8 C         142.0798  140.8177  165.0346 C.3     1  UNL1        0.0176
      9 C         142.9903  139.7360  164.5338 C.3     1  UNL1        0.0577
     10 C         143.5775  138.7453  165.4948 C.3     1  UNL1        0.0176
     11 C         143.2542  138.8364  166.9568 C.3     1  UNL1        0.0198
     12 H         142.1637  139.6854  169.5128 H       1  UNL1        0.1191
     13 H         143.6570  139.2474  168.9189 H       1  UNL1        0.1191
     14 C         141.5401  140.7570  168.4066 C.ar    1  UNL1       -0.0098
     15 C         140.2554  140.2280  168.9719 C.ar    1  UNL1       -0.0030
     16 C         139.4519  141.0668  169.9209 C.ar    1  UNL1       -0.0003
     17 C         139.9332  142.4347  170.3047 C.ar    1  UNL1       -0.0000
     18 C         141.2179  142.9637  169.7395 C.ar    1  UNL1       -0.0003
     19 C         142.0214  142.1248  168.7905 C.ar    1  UNL1       -0.0030
     20 N         144.0942  139.4252  159.5425 N.am    1  UNL1       -0.3018
     21 C         143.0159  139.0897  158.5554 C.2     1  UNL1        0.2426
     22 O         141.6141  138.8451  159.0300 O.2     1  UNL1       -0.2733
     23 H         145.0142  139.5857  159.2309 H       1  UNL1        0.1495
     24 C         143.3392  138.9986  157.0934 C.3     1  UNL1        0.1759
     25 N         144.4732  139.7991  156.5248 N.am    1  UNL1       -0.2931
     26 C         144.1899  141.0082  155.6835 C.2     1  UNL1        0.2462
     27 O         142.7726  141.4167  155.4107 O.2     1  UNL1       -0.2701
     28 H         145.4034  139.5309  156.7039 H       1  UNL1        0.1502
     29 C         145.3238  141.8087  155.1149 C.ar    1  UNL1        0.0533
     30 C         145.0425  143.0594  154.3361 C.ar    1  UNL1        0.0045
     31 C         146.1766  143.8599  153.7676 C.ar    1  UNL1        0.0001
     32 C         147.5919  143.4096  153.9778 C.ar    1  UNL1        0.0039
     33 C         147.8732  142.1588  154.7565 C.ar    1  UNL1        0.0716
     34 C         146.7391  141.3584  155.3251 C.ar    1  UNL1        0.0084
     35 C         149.2885  141.7086  154.9667 C.3     1  UNL1        0.4186
     36 F         150.7038  141.2583  155.1769 F       1  UNL1       -0.1659
     37 F         149.1794  142.0459  156.4242 F       1  UNL1       -0.1659
     38 F         149.3976  141.3712  153.5092 F       1  UNL1       -0.1659
@<TRIPOS>BOND
     1     6     5    1
     2     6    14    1
     3    14    15   ar
     4    15    16   ar
     5    16    17   ar
     6    17    18   ar
     7    18    19   ar
     8     6     7    1
     9     7     8    1
    10     8     9    1
    11     9     1    1
    12     1     2    1
    13     2     3    1
    14     3    20    1
    15    20    21   am
    16    21    22    2
    17    21    24    1
    18    24    25    1
    19    25    26   am
    20    26    27    2
    21    26    29    1
    22    29    30   ar
    23    30    31   ar
    24    31    32   ar
    25    32    33   ar
    26    33    35    1
    27    35    36    1
    28    35    37    1
    29    35    38    1
    30    33    34   ar
    31     3     4    1
    32     9    10    1
    33    10    11    1
    34    11     6    1
    35    19    14   ar
    36     4     1    1
    37    34    29   ar
    38     5    12    1
    39     5    13    1
    40    20    23    1
    41    25    28    1
@<TRIPOS>MOLECULE
*****
 38 41 0 0 0
SMALL
GASTEIGER

@<TRIPOS>ATOM
      1 N         140.5287  143.4153  159.4335 N.3     1  UNL1       -0.2711
      2 C         140.6465  141.9428  159.6937 C.3     1  UNL1        0.0933
      3 C         141.1497  142.2275  161.0777 C.3     1  UNL1        0.1035
      4 C         141.0319  143.7000  160.8175 C.3     1  UNL1        0.0933
      5 N         138.4905  145.7993  154.6372 N.3     1  UNL1       -0.3200
      6 C         139.2114  145.9351  155.9456 C.3     1  UNL1        0.0582
      7 C         139.9490  146.5651  157.0898 C.3     1  UNL1        0.0198
      8 C         140.3881  145.7251  158.2524 C.3     1  UNL1        0.0176
      9 C         140.0896  144.2552  158.2708 C.3     1  UNL1        0.0577
     10 C         139.3520  143.6253  157.1267 C.3     1  UNL1        0.0176
     11 C         138.9129  144.4652  155.9641 C.3     1  UNL1        0.0198
     12 H         138.4400  146.7100  154.1807 H       1  UNL1        0.1191
     13 H         137.5469  145.4495  154.8036 H       1  UNL1        0.1191
     14 C         139.2595  147.3579  155.4727 C.ar    1  UNL1       -0.0098
     15 C         139.9897  147.7039  154.2090 C.ar    1  UNL1       -0.0030
     16 C         140.0378  149.1266  153.7362 C.ar    1  UNL1       -0.0003
     17 C         139.3557  150.2032  154.5271 C.ar    1  UNL1       -0.0000
     18 C         138.6256  149.8572  155.7908 C.ar    1  UNL1       -0.0003
     19 C         138.5775  148.4345  156.2637 C.ar    1  UNL1       -0.0030
     20 N         141.5888  141.3876  162.2403 N.am    1  UNL1       -0.3018
     21 C         143.0500  141.2163  162.5324 C.2     1  UNL1        0.2426
     22 O         144.0723  141.8850  161.6618 O.2     1  UNL1       -0.2733
     23 H         140.9178  140.9487  162.8117 H       1  UNL1        0.1495
     24 C         143.4891  140.3764  163.6951 C.3     1  UNL1        0.1759
     25 N         143.0722  140.7466  165.0876 N.am    1  UNL1       -0.2931
     26 C         141.7290  140.3251  165.6054 C.2     1  UNL1        0.2462
     27 O         140.8027  139.5333  164.7306 O.2     1  UNL1       -0.2701
     28 H         143.6802  141.2662  165.6617 H       1  UNL1        0.1502
     29 C         141.3122  140.6953  166.9979 C.ar    1  UNL1        0.0533
     30 C         140.0268  140.1661  167.5617 C.ar    1  UNL1        0.0045
     31 C         139.6099  140.5364  168.9542 C.ar    1  UNL1        0.0001
     32 C         140.4784  141.4358  169.7830 C.ar    1  UNL1        0.0039
     33 C         141.7638  141.9649  169.2192 C.ar    1  UNL1        0.0716
     34 C         142.1806  141.5947  167.8266 C.ar    1  UNL1        0.0084
     35 C         142.6322  142.8643  170.0480 C.3     1  UNL1        0.4186
     36 F         143.5007  143.7637  170.8767 F       1  UNL1       -0.1659
     37 F         143.7305  141.8435  170.0049 F       1  UNL1       -0.1659
     38 F         141.5340  143.8851  170.0910 F       1  UNL1       -0.1659
@<TRIPOS>BOND
     1     6     5    1
     2     6    14    1
     3    14    15   ar
     4    15    16   ar
     5    16    17   ar
     6    17    18   ar
     7    18    19   ar
     8     6     7    1
     9     7     8    1
    10     8     9    1
    11     9     1    1
    12     1     2    1
    13     2     3    1
    14     3    20    1
    15    20    21   am
    16    21    22    2
    17    21    24    1
    18    24    25    1
    19    25    26   am
    20    26    27    2
    21    26    29    1
    22    29    30   ar
    23    30    31   ar
    24    31    32   ar
    25    32    33   ar
    26    33    35    1
    27    35    36    1
    28    35    37    1
    29    35    38    1
    30    33    34   ar
    31     3     4    1
    32     9    10    1
    33    10    11    1
    34    11     6    1
    35    19    14   ar
    36     4     1    1
    37    34    29   ar
    38     5    12    1
    39     5    13    1
    40    20    23    1
    41    25    28    1
@<TRIPOS>MOLECULE
*****
 38 41 0 0 0
SMALL
GASTEIGER

@<TRIPOS>ATOM
      1 N         142.9128  138.8929  162.7784 N.3     1  UNL1       -0.2711
      2 C         142.0915  137.9177  161.9882 C.3     1  UNL1        0.0933
      3 C         143.1169  137.9409  160.8937 C.3     1  UNL1        0.1035
      4 C         143.9382  138.9161  161.6839 C.3     1  UNL1        0.0933
      5 N         142.9608  142.1315  167.5061 N.3     1  UNL1       -0.3200
      6 C         142.4799  140.9122  166.7765 C.3     1  UNL1        0.0582
      7 C         141.7554  139.6277  166.5027 C.3     1  UNL1        0.0198
      8 C         141.8997  138.9546  165.1700 C.3     1  UNL1        0.0176
      9 C         142.7686  139.5660  164.1111 C.3     1  UNL1        0.0577
     10 C         143.4931  140.8505  164.3849 C.3     1  UNL1        0.0176
     11 C         143.3488  141.5236  165.7176 C.3     1  UNL1        0.0198
     12 H         142.5585  142.1476  168.4432 H       1  UNL1        0.1191
     13 H         142.6725  142.9675  166.9979 H       1  UNL1        0.1191
     14 C         141.7780  140.7242  168.0888 C.ar    1  UNL1       -0.0098
     15 C         140.6089  141.5936  168.4453 C.ar    1  UNL1       -0.0030
     16 C         139.9071  141.4056  169.7575 C.ar    1  UNL1       -0.0003
     17 C         140.3744  140.3482  170.7133 C.ar    1  UNL1       -0.0000
     18 C         141.5435  139.4788  170.3568 C.ar    1  UNL1       -0.0003
     19 C         142.2454  139.6668  169.0446 C.ar    1  UNL1       -0.0030
     20 N         143.2612  137.2678  159.5610 N.am    1  UNL1       -0.3018
     21 C         142.5436  137.8149  158.3628 C.2     1  UNL1        0.2426
     22 O         141.6817  139.0352  158.4972 O.2     1  UNL1       -0.2733
     23 H         143.8269  136.4669  159.4727 H       1  UNL1        0.1495
     24 C         142.6879  137.1417  157.0300 C.3     1  UNL1        0.1759
     25 N         142.9621  135.6687  156.9596 N.am    1  UNL1       -0.2931
     26 C         142.4445  134.8639  155.8045 C.2     1  UNL1        0.2462
     27 O         141.6527  135.5321  154.7198 O.2     1  UNL1       -0.2701
     28 H         143.4818  135.2302  157.6715 H       1  UNL1        0.1502
     29 C         142.7187  133.3909  155.7341 C.ar    1  UNL1        0.0533
     30 C         144.1100  132.8755  155.9551 C.ar    1  UNL1        0.0045
     31 C         144.3841  131.4025  155.8847 C.ar    1  UNL1        0.0001
     32 C         143.2671  130.4448  155.5932 C.ar    1  UNL1        0.0039
     33 C         141.8758  130.9601  155.3721 C.ar    1  UNL1        0.0716
     34 C         141.6017  132.4331  155.4426 C.ar    1  UNL1        0.0084
     35 C         140.7588  130.0024  155.0806 C.3     1  UNL1        0.4186
     36 F         139.6418  129.0446  154.7891 F       1  UNL1       -0.1659
     37 F         141.5586  128.8860  155.6839 F       1  UNL1       -0.1659
     38 F         139.9590  131.1188  154.4773 F       1  UNL1       -0.1659
@<TRIPOS>BOND
     1     6     5    1
     2     6    14    1
     3    14    15   ar
     4    15    16   ar
     5    16    17   ar
     6    17    18   ar
     7    18    19   ar
     8     6     7    1
     9     7     8    1
    10     8     9    1
    11     9     1    1
    12     1     2    1
    13     2     3    1
    14     3    20    1
    15    20    21   am
    16    21    22    2
    17    21    24    1
    18    24    25    1
    19    25    26   am
    20    26    27    2
    21    26    29    1
    22    29    30   ar
    23    30    31   ar
    24    31    32   ar
    25    32    33   ar
    26    33    35    1
    27    35    36    1
    28    35    37    1
    29    35    38    1
    30    33    34   ar
    31     3     4    1
    32     9    10    1
    33    10    11    1
    34    11     6    1
    35    19    14   ar
    36     4     1    1
    37    34    29   ar
    38     5    12    1
    39     5    13    1
    40    20    23    1
    41    25    28    1
