@<TRIPOS>MOLECULE
*****
 30 34 0 0 0
SMALL
GASTEIGER

@<TRIPOS>ATOM
      1 O         144.1006  139.5116  158.5354 O.2     1  UNL1       -0.2526
      2 C         143.1022  138.6947  159.3008 C.2     1  UNL1        0.3039
      3 N         142.1082  137.8445  158.5666 N.am    1  UNL1       -0.2901
      4 N         143.0978  138.7280  160.8004 N.am    1  UNL1       -0.2642
      5 C         144.0919  139.5783  161.5346 C.3     1  UNL1        0.0954
      6 C         144.0875  139.6116  163.0342 C.3     1  UNL1        0.0309
      7 C         143.0891  138.7946  163.7997 C.3     1  UNL1        0.0827
      8 C         142.0951  137.9444  163.0655 C.3     1  UNL1        0.0309
      9 C         142.0995  137.9111  161.5659 C.3     1  UNL1        0.0954
     10 H         141.4529  137.3083  159.0690 H       1  UNL1        0.1509
     11 C         143.0847  138.8280  165.2993 C.ar    1  UNL1        0.2363
     12 N         142.2563  139.7364  166.1586 N.ar    1  UNL1       -0.1882
     13 C         142.5676  139.4286  167.5933 C.ar    1  UNL1        0.2393
     14 N         143.5884  138.3299  167.6207 N.ar    1  UNL1       -0.0528
     15 O         143.9080  137.9587  166.2029 O.2     1  UNL1       -0.3369
     16 C         141.9640  140.1013  168.7904 C.ar    1  UNL1        0.2023
     17 N         140.5794  139.7363  169.2371 N.ar    1  UNL1       -0.2223
     18 C         139.9756  140.4090  170.4342 C.ar    1  UNL1        0.1023
     19 C         140.7566  141.4468  171.1846 C.ar    1  UNL1        0.0414
     20 C         142.1412  141.8118  170.7379 C.ar    1  UNL1        0.1023
     21 N         142.7449  141.1391  169.5407 N.ar    1  UNL1       -0.2223
     22 C         142.1126  137.8111  157.0670 C.3     1  UNL1        0.0774
     23 C         142.1374  138.5318  155.7517 C.3     1  UNL1        0.0259
     24 C         142.0954  137.0328  155.7849 C.3     1  UNL1        0.0420
     25 C         142.0612  135.7178  155.0638 C.ar    1  UNL1       -0.0208
     26 C         141.8941  135.6838  153.5736 C.ar    1  UNL1       -0.0042
     27 C         141.8599  134.3689  152.8526 C.ar    1  UNL1       -0.0003
     28 C         141.9929  133.0881  153.6219 C.ar    1  UNL1       -0.0000
     29 C         142.1600  133.1221  155.1121 C.ar    1  UNL1       -0.0003
     30 C         142.1941  134.4370  155.8331 C.ar    1  UNL1       -0.0042
@<TRIPOS>BOND
     1     1     2    2
     2     2     3   am
     3     3    22    1
     4    22    23    1
     5    23    24    1
     6    24    25    1
     7    25    26   ar
     8    26    27   ar
     9    27    28   ar
    10    28    29   ar
    11    29    30   ar
    12     2     4   am
    13     4     5    1
    14     5     6    1
    15     6     7    1
    16     7    11    1
    17    11    12   ar
    18    12    13   ar
    19    13    16    1
    20    16    17   ar
    21    17    18   ar
    22    18    19   ar
    23    19    20   ar
    24    20    21   ar
    25    13    14   ar
    26    14    15   ar
    27     7     8    1
    28     8     9    1
    29    24    22    1
    30    30    25   ar
    31     9     4    1
    32    15    11   ar
    33    21    16   ar
    34     3    10    1
@<TRIPOS>MOLECULE
*****
 30 34 0 0 0
SMALL
GASTEIGER

@<TRIPOS>ATOM
      1 O         142.4829  138.8748  165.4216 O.2     1  UNL1       -0.2526
      2 C         141.4235  139.0224  164.3699 C.2     1  UNL1        0.3039
      3 N         140.0267  139.4048  164.7609 N.am    1  UNL1       -0.2901
      4 N         141.7609  138.7875  162.9274 N.am    1  UNL1       -0.2642
      5 C         143.1577  138.4050  162.5365 C.3     1  UNL1        0.0954
      6 C         143.4951  138.1701  161.0939 C.3     1  UNL1        0.0309
      7 C         142.4357  138.3177  160.0423 C.3     1  UNL1        0.0827
      8 C         141.0389  138.7001  160.4332 C.3     1  UNL1        0.0309
      9 C         140.7015  138.9350  161.8757 C.3     1  UNL1        0.0954
     10 H         139.3315  139.5016  164.0706 H       1  UNL1        0.1509
     11 C         142.7731  138.0828  158.5997 C.ar    1  UNL1        0.2363
     12 N         142.1819  137.0237  157.7171 N.ar    1  UNL1       -0.1882
     13 C         142.8044  137.1521  156.3583 C.ar    1  UNL1        0.2393
     14 N         143.7802  138.2905  156.4012 N.ar    1  UNL1       -0.0528
     15 O         143.7608  138.8656  157.7864 O.2     1  UNL1       -0.3369
     16 C         142.5037  136.2929  155.1661 C.ar    1  UNL1        0.2023
     17 N         142.6405  134.8023  155.2623 N.ar    1  UNL1       -0.2223
     18 C         142.3399  133.9430  154.0701 C.ar    1  UNL1        0.1023
     19 C         141.9025  134.5745  152.7817 C.ar    1  UNL1        0.0414
     20 C         141.7656  136.0651  152.6856 C.ar    1  UNL1        0.1023
     21 N         142.0663  136.9244  153.8778 N.ar    1  UNL1       -0.2223
     22 C         139.6894  139.6397  166.2034 C.3     1  UNL1        0.0774
     23 C         138.7857  139.4150  167.3794 C.3     1  UNL1        0.0259
     24 C         140.0086  140.2712  167.5260 C.3     1  UNL1        0.0420
     25 C         140.8989  141.1303  168.3742 C.ar    1  UNL1       -0.0208
     26 C         140.3777  142.4151  168.9464 C.ar    1  UNL1       -0.0042
     27 C         141.2681  143.2740  169.7946 C.ar    1  UNL1       -0.0003
     28 C         142.6796  142.8482  170.0705 C.ar    1  UNL1       -0.0000
     29 C         143.2008  141.5633  169.4983 C.ar    1  UNL1       -0.0003
     30 C         142.3105  140.7044  168.6501 C.ar    1  UNL1       -0.0042
@<TRIPOS>BOND
     1     1     2    2
     2     2     3   am
     3     3    22    1
     4    22    23    1
     5    23    24    1
     6    24    25    1
     7    25    26   ar
     8    26    27   ar
     9    27    28   ar
    10    28    29   ar
    11    29    30   ar
    12     2     4   am
    13     4     5    1
    14     5     6    1
    15     6     7    1
    16     7    11    1
    17    11    12   ar
    18    12    13   ar
    19    13    16    1
    20    16    17   ar
    21    17    18   ar
    22    18    19   ar
    23    19    20   ar
    24    20    21   ar
    25    13    14   ar
    26    14    15   ar
    27     7     8    1
    28     8     9    1
    29    24    22    1
    30    30    25   ar
    31     9     4    1
    32    15    11   ar
    33    21    16   ar
    34     3    10    1
@<TRIPOS>MOLECULE
*****
 30 34 0 0 0
SMALL
GASTEIGER

@<TRIPOS>ATOM
      1 O         141.9385  138.2564  165.0775 O.2     1  UNL1       -0.2526
      2 C         141.1769  138.9330  163.9766 C.2     1  UNL1        0.3039
      3 N         139.8193  139.5100  164.2485 N.am    1  UNL1       -0.2901
      4 N         141.7729  139.0327  162.6037 N.am    1  UNL1       -0.2642
      5 C         143.1305  138.4556  162.3317 C.3     1  UNL1        0.0954
      6 C         143.7265  138.5553  160.9588 C.3     1  UNL1        0.0309
      7 C         142.9649  139.2320  159.8579 C.3     1  UNL1        0.0827
      8 C         141.6073  139.8090  160.1298 C.3     1  UNL1        0.0309
      9 C         141.0113  139.7093  161.5027 C.3     1  UNL1        0.0954
     10 H         139.3194  139.9541  163.5260 H       1  UNL1        0.1509
     11 C         143.5609  139.3316  158.4850 C.ar    1  UNL1        0.2363
     12 N         144.4668  140.4217  157.9940 N.ar    1  UNL1       -0.1882
     13 C         144.8214  140.1225  156.5676 C.ar    1  UNL1        0.2393
     14 N         144.1347  138.8474  156.1769 N.ar    1  UNL1       -0.0528
     15 O         143.3556  138.3586  157.3619 O.2     1  UNL1       -0.3369
     16 C         145.7072  140.9525  155.6865 C.ar    1  UNL1        0.2023
     17 N         146.4703  142.1072  156.2648 N.ar    1  UNL1       -0.2223
     18 C         147.3562  142.9374  155.3839 C.ar    1  UNL1        0.1023
     19 C         147.4789  142.6128  153.9245 C.ar    1  UNL1        0.0414
     20 C         146.7158  141.4582  153.3462 C.ar    1  UNL1        0.1023
     21 N         145.8299  140.6280  154.2273 N.ar    1  UNL1       -0.2223
     22 C         139.2233  139.4104  165.6214 C.3     1  UNL1        0.0774
     23 C         138.0683  139.0659  166.5143 C.3     1  UNL1        0.0259
     24 C         139.3460  139.5823  167.1065 C.3     1  UNL1        0.0420
     25 C         140.1547  139.9798  168.3058 C.ar    1  UNL1       -0.0208
     26 C         139.4659  140.4536  169.5512 C.ar    1  UNL1       -0.0042
     27 C         140.2745  140.8511  170.7504 C.ar    1  UNL1       -0.0003
     28 C         141.7719  140.7747  170.7042 C.ar    1  UNL1       -0.0000
     29 C         142.4606  140.3008  169.4588 C.ar    1  UNL1       -0.0003
     30 C         141.6520  139.9034  168.2596 C.ar    1  UNL1       -0.0042
@<TRIPOS>BOND
     1     1     2    2
     2     2     3   am
     3     3    22    1
     4    22    23    1
     5    23    24    1
     6    24    25    1
     7    25    26   ar
     8    26    27   ar
     9    27    28   ar
    10    28    29   ar
    11    29    30   ar
    12     2     4   am
    13     4     5    1
    14     5     6    1
    15     6     7    1
    16     7    11    1
    17    11    12   ar
    18    12    13   ar
    19    13    16    1
    20    16    17   ar
    21    17    18   ar
    22    18    19   ar
    23    19    20   ar
    24    20    21   ar
    25    13    14   ar
    26    14    15   ar
    27     7     8    1
    28     8     9    1
    29    24    22    1
    30    30    25   ar
    31     9     4    1
    32    15    11   ar
    33    21    16   ar
    34     3    10    1
@<TRIPOS>MOLECULE
*****
 30 34 0 0 0
SMALL
GASTEIGER

@<TRIPOS>ATOM
      1 O         142.2888  143.1126  162.8622 O.2     1  UNL1       -0.2526
      2 C         141.5522  141.8163  162.6975 C.2     1  UNL1        0.3039
      3 N         140.4604  141.4468  163.6573 N.am    1  UNL1       -0.2901
      4 N         141.9076  140.8894  161.5729 N.am    1  UNL1       -0.2642
      5 C         142.9996  141.2589  160.6131 C.3     1  UNL1        0.0954
      6 C         143.3550  140.3320  159.4885 C.3     1  UNL1        0.0309
      7 C         142.6184  139.0357  159.3238 C.3     1  UNL1        0.0827
      8 C         141.5265  138.6663  160.2836 C.3     1  UNL1        0.0309
      9 C         141.1711  139.5931  161.4082 C.3     1  UNL1        0.0954
     10 H         139.9769  140.5960  163.5492 H       1  UNL1        0.1509
     11 C         142.9738  138.1088  158.1993 C.ar    1  UNL1        0.2363
     12 N         142.6409  136.6483  158.1218 N.ar    1  UNL1       -0.1882
     13 C         143.1858  136.1165  156.8294 C.ar    1  UNL1        0.2393
     14 N         143.8555  137.2485  156.1081 N.ar    1  UNL1       -0.0528
     15 O         143.7244  138.4797  156.9547 O.2     1  UNL1       -0.3369
     16 C         143.0797  134.7013  156.3436 C.ar    1  UNL1        0.2023
     17 N         143.0763  133.5690  157.3273 N.ar    1  UNL1       -0.2223
     18 C         142.9702  132.1538  156.8417 C.ar    1  UNL1        0.1023
     19 C         142.8675  131.8709  155.3722 C.ar    1  UNL1        0.0414
     20 C         142.8708  133.0033  154.3884 C.ar    1  UNL1        0.1023
     21 N         142.9770  134.4185  154.8742 N.ar    1  UNL1       -0.2223
     22 C         140.1050  142.3737  164.7818 C.3     1  UNL1        0.0774
     23 C         139.2779  143.5018  165.3234 C.3     1  UNL1        0.0259
     24 C         140.3165  142.8509  166.1881 C.3     1  UNL1        0.0420
     25 C         141.0383  142.7507  167.4992 C.ar    1  UNL1       -0.0208
     26 C         142.4130  142.1531  167.5548 C.ar    1  UNL1       -0.0042
     27 C         143.1347  142.0528  168.8659 C.ar    1  UNL1       -0.0003
     28 C         142.4818  142.5502  170.1214 C.ar    1  UNL1       -0.0000
     29 C         141.1071  143.1478  170.0658 C.ar    1  UNL1       -0.0003
     30 C         140.3854  143.2480  168.7547 C.ar    1  UNL1       -0.0042
@<TRIPOS>BOND
     1     1     2    2
     2     2     3   am
     3     3    22    1
     4    22    23    1
     5    23    24    1
     6    24    25    1
     7    25    26   ar
     8    26    27   ar
     9    27    28   ar
    10    28    29   ar
    11    29    30   ar
    12     2     4   am
    13     4     5    1
    14     5     6    1
    15     6     7    1
    16     7    11    1
    17    11    12   ar
    18    12    13   ar
    19    13    16    1
    20    16    17   ar
    21    17    18   ar
    22    18    19   ar
    23    19    20   ar
    24    20    21   ar
    25    13    14   ar
    26    14    15   ar
    27     7     8    1
    28     8     9    1
    29    24    22    1
    30    30    25   ar
    31     9     4    1
    32    15    11   ar
    33    21    16   ar
    34     3    10    1
@<TRIPOS>MOLECULE
*****
 30 34 0 0 0
SMALL
GASTEIGER

@<TRIPOS>ATOM
      1 O         142.6674  143.0571  164.0164 O.2     1  UNL1       -0.2526
      2 C         141.5763  142.4190  163.2085 C.2     1  UNL1        0.3039
      3 N         140.8984  141.1789  163.7109 N.am    1  UNL1       -0.2901
      4 N         141.1632  143.0212  161.8982 N.am    1  UNL1       -0.2642
      5 C         141.8412  144.2614  161.3958 C.3     1  UNL1        0.0954
      6 C         141.4281  144.8635  160.0856 C.3     1  UNL1        0.0309
      7 C         140.3371  144.2255  159.2777 C.3     1  UNL1        0.0827
      8 C         139.6592  142.9853  159.7801 C.3     1  UNL1        0.0309
      9 C         140.0722  142.3832  161.0904 C.3     1  UNL1        0.0954
     10 H         140.1823  140.7602  163.1807 H       1  UNL1        0.1509
     11 C         139.9240  144.8276  157.9674 C.ar    1  UNL1        0.2363
     12 N         140.1387  146.2506  157.5443 N.ar    1  UNL1       -0.1882
     13 C         139.5711  146.4149  156.1656 C.ar    1  UNL1        0.2393
     14 N         139.0056  145.0935  155.7366 N.ar    1  UNL1       -0.0528
     15 O         139.2237  144.1125  156.8502 O.2     1  UNL1       -0.3369
     16 C         139.5693  147.6788  155.3578 C.ar    1  UNL1        0.2023
     17 N         138.8708  148.9002  155.8777 N.ar    1  UNL1       -0.2223
     18 C         138.8690  150.1642  155.0700 C.ar    1  UNL1        0.1023
     19 C         139.5656  150.2066  153.7422 C.ar    1  UNL1        0.0414
     20 C         140.2641  148.9853  153.2223 C.ar    1  UNL1        0.1023
     21 N         140.2659  147.7213  154.0301 N.ar    1  UNL1       -0.2223
     22 C         141.3115  140.5768  165.0212 C.3     1  UNL1        0.0774
     23 C         142.0924  139.5542  165.7922 C.3     1  UNL1        0.0259
     24 C         141.2460  140.5564  166.5196 C.3     1  UNL1        0.0420
     25 C         140.7194  141.1233  167.8047 C.ar    1  UNL1       -0.0208
     26 C         139.8232  140.2960  168.6778 C.ar    1  UNL1       -0.0042
     27 C         139.2967  140.8629  169.9629 C.ar    1  UNL1       -0.0003
     28 C         139.6664  142.2571  170.3748 C.ar    1  UNL1       -0.0000
     29 C         140.5627  143.0843  169.5017 C.ar    1  UNL1       -0.0003
     30 C         141.0892  142.5174  168.2166 C.ar    1  UNL1       -0.0042
@<TRIPOS>BOND
     1     1     2    2
     2     2     3   am
     3     3    22    1
     4    22    23    1
     5    23    24    1
     6    24    25    1
     7    25    26   ar
     8    26    27   ar
     9    27    28   ar
    10    28    29   ar
    11    29    30   ar
    12     2     4   am
    13     4     5    1
    14     5     6    1
    15     6     7    1
    16     7    11    1
    17    11    12   ar
    18    12    13   ar
    19    13    16    1
    20    16    17   ar
    21    17    18   ar
    22    18    19   ar
    23    19    20   ar
    24    20    21   ar
    25    13    14   ar
    26    14    15   ar
    27     7     8    1
    28     8     9    1
    29    24    22    1
    30    30    25   ar
    31     9     4    1
    32    15    11   ar
    33    21    16   ar
    34     3    10    1
@<TRIPOS>MOLECULE
*****
 30 34 0 0 0
SMALL
GASTEIGER

@<TRIPOS>ATOM
      1 O         140.9922  140.9900  163.0961 O.2     1  UNL1       -0.2526
      2 C         141.5841  142.1520  162.3547 C.2     1  UNL1        0.3039
      3 N         141.3304  143.5521  162.8293 N.am    1  UNL1       -0.2901
      4 N         142.4295  141.9138  161.1388 N.am    1  UNL1       -0.2642
      5 C         142.6832  140.5136  160.6642 C.3     1  UNL1        0.0954
      6 C         143.5286  140.2754  159.4483 C.3     1  UNL1        0.0309
      7 C         144.1205  141.4374  158.7070 C.3     1  UNL1        0.0827
      8 C         143.8668  142.8375  159.1815 C.3     1  UNL1        0.0309
      9 C         143.0214  143.0757  160.3974 C.3     1  UNL1        0.0954
     10 H         141.7189  144.3148  162.3427 H       1  UNL1        0.1509
     11 C         144.9659  141.1992  157.4910 C.ar    1  UNL1        0.2363
     12 N         146.0770  142.0809  157.0032 N.ar    1  UNL1       -0.1882
     13 C         146.6465  141.4641  155.7601 C.ar    1  UNL1        0.2393
     14 N         145.8874  140.2011  155.4797 N.ar    1  UNL1       -0.0528
     15 O         144.8488  140.0374  156.5495 O.2     1  UNL1       -0.3369
     16 C         147.7767  142.0138  154.9412 C.ar    1  UNL1        0.2023
     17 N         147.5035  143.0314  153.8736 N.ar    1  UNL1       -0.2223
     18 C         148.6336  143.5812  153.0546 C.ar    1  UNL1        0.1023
     19 C         150.0369  143.1133  153.3034 C.ar    1  UNL1        0.0414
     20 C         150.3101  142.0957  154.3710 C.ar    1  UNL1        0.1023
     21 N         149.1799  141.5459  155.1900 N.ar    1  UNL1       -0.2223
     22 C         140.4850  143.7903  164.0452 C.3     1  UNL1        0.0774
     23 C         139.5031  144.6375  164.7990 C.3     1  UNL1        0.0259
     24 C         140.0025  143.3558  165.3973 C.3     1  UNL1        0.0420
     25 C         140.0122  142.3649  166.5235 C.ar    1  UNL1       -0.0208
     26 C         139.5369  140.9613  166.2915 C.ar    1  UNL1       -0.0042
     27 C         139.5467  139.9705  167.4176 C.ar    1  UNL1       -0.0003
     28 C         140.0318  140.3833  168.7757 C.ar    1  UNL1       -0.0000
     29 C         140.5071  141.7869  169.0076 C.ar    1  UNL1       -0.0003
     30 C         140.4973  142.7777  167.8815 C.ar    1  UNL1       -0.0042
@<TRIPOS>BOND
     1     1     2    2
     2     2     3   am
     3     3    22    1
     4    22    23    1
     5    23    24    1
     6    24    25    1
     7    25    26   ar
     8    26    27   ar
     9    27    28   ar
    10    28    29   ar
    11    29    30   ar
    12     2     4   am
    13     4     5    1
    14     5     6    1
    15     6     7    1
    16     7    11    1
    17    11    12   ar
    18    12    13   ar
    19    13    16    1
    20    16    17   ar
    21    17    18   ar
    22    18    19   ar
    23    19    20   ar
    24    20    21   ar
    25    13    14   ar
    26    14    15   ar
    27     7     8    1
    28     8     9    1
    29    24    22    1
    30    30    25   ar
    31     9     4    1
    32    15    11   ar
    33    21    16   ar
    34     3    10    1
@<TRIPOS>MOLECULE
*****
 30 34 0 0 0
SMALL
GASTEIGER

@<TRIPOS>ATOM
      1 O         143.8509  139.2649  164.7089 O.2     1  UNL1       -0.2526
      2 C         142.9534  140.0085  163.7647 C.2     1  UNL1        0.3039
      3 N         142.3291  141.3052  164.1877 N.am    1  UNL1       -0.2901
      4 N         142.6801  139.4554  162.3974 N.am    1  UNL1       -0.2642
      5 C         143.3044  138.1587  161.9744 C.3     1  UNL1        0.0954
      6 C         143.0311  137.6056  160.6071 C.3     1  UNL1        0.0309
      7 C         142.1336  138.3492  159.6629 C.3     1  UNL1        0.0827
      8 C         141.5093  139.6459  160.0859 C.3     1  UNL1        0.0309
      9 C         141.7826  140.1990  161.4532 C.3     1  UNL1        0.0954
     10 H         141.7401  141.7932  163.5680 H       1  UNL1        0.1509
     11 C         141.8603  137.7961  158.2956 C.ar    1  UNL1        0.2363
     12 N         140.6070  137.9989  157.4968 N.ar    1  UNL1       -0.1882
     13 C         140.7645  137.2712  156.1946 C.ar    1  UNL1        0.2393
     14 N         142.1151  136.6187  156.1886 N.ar    1  UNL1       -0.0528
     15 O         142.7923  136.9431  157.4871 O.2     1  UNL1       -0.3369
     16 C         139.7495  137.2074  155.0920 C.ar    1  UNL1        0.2023
     17 N         138.3490  137.6872  155.3331 N.ar    1  UNL1       -0.2223
     18 C         137.3339  137.6234  154.2306 C.ar    1  UNL1        0.1023
     19 C         137.7195  137.0796  152.8868 C.ar    1  UNL1        0.0414
     20 C         139.1200  136.5998  152.6457 C.ar    1  UNL1        0.1023
     21 N         140.1351  136.6636  153.7483 N.ar    1  UNL1       -0.2223
     22 C         142.6024  141.8583  165.5550 C.3     1  UNL1        0.0774
     23 C         143.4915  142.6161  166.4958 C.3     1  UNL1        0.0259
     24 C         142.1866  142.0585  166.9822 C.3     1  UNL1        0.0420
     25 C         141.1932  141.8522  168.0870 C.ar    1  UNL1       -0.0208
     26 C         140.9782  142.9256  169.1124 C.ar    1  UNL1       -0.0042
     27 C         139.9848  142.7192  170.2172 C.ar    1  UNL1       -0.0003
     28 C         139.2064  141.4394  170.2965 C.ar    1  UNL1       -0.0000
     29 C         139.4214  140.3660  169.2711 C.ar    1  UNL1       -0.0003
     30 C         140.4148  140.5724  168.1664 C.ar    1  UNL1       -0.0042
@<TRIPOS>BOND
     1     1     2    2
     2     2     3   am
     3     3    22    1
     4    22    23    1
     5    23    24    1
     6    24    25    1
     7    25    26   ar
     8    26    27   ar
     9    27    28   ar
    10    28    29   ar
    11    29    30   ar
    12     2     4   am
    13     4     5    1
    14     5     6    1
    15     6     7    1
    16     7    11    1
    17    11    12   ar
    18    12    13   ar
    19    13    16    1
    20    16    17   ar
    21    17    18   ar
    22    18    19   ar
    23    19    20   ar
    24    20    21   ar
    25    13    14   ar
    26    14    15   ar
    27     7     8    1
    28     8     9    1
    29    24    22    1
    30    30    25   ar
    31     9     4    1
    32    15    11   ar
    33    21    16   ar
    34     3    10    1
@<TRIPOS>MOLECULE
*****
 30 34 0 0 0
SMALL
GASTEIGER

@<TRIPOS>ATOM
      1 O         143.9208  139.2253  164.7175 O.2     1  UNL1       -0.2526
      2 C         143.2269  140.0422  163.6680 C.2     1  UNL1        0.3039
      3 N         142.6932  141.4023  164.0076 N.am    1  UNL1       -0.2901
      4 N         143.0666  139.4989  162.2791 N.am    1  UNL1       -0.2642
      5 C         143.6003  138.1388  161.9396 C.3     1  UNL1        0.0954
      6 C         143.4401  137.5955  160.5506 C.3     1  UNL1        0.0309
      7 C         142.7462  138.4124  159.5012 C.3     1  UNL1        0.0827
      8 C         142.2125  139.7725  159.8407 C.3     1  UNL1        0.0309
      9 C         142.3728  140.3158  161.2297 C.3     1  UNL1        0.0954
     10 H         142.2378  141.9385  163.3188 H       1  UNL1        0.1509
     11 C         142.5859  137.8691  158.1122 C.ar    1  UNL1        0.2363
     12 N         142.7501  136.4358  157.7018 N.ar    1  UNL1       -0.1882
     13 C         142.4990  136.3446  156.2257 C.ar    1  UNL1        0.2393
     14 N         142.1797  137.7216  155.7240 N.ar    1  UNL1       -0.0528
     15 O         142.2334  138.6638  156.8899 O.2     1  UNL1       -0.3369
     16 C         142.5571  135.0957  155.3970 C.ar    1  UNL1        0.2023
     17 N         143.2096  133.8614  155.9454 N.ar    1  UNL1       -0.2223
     18 C         143.2678  132.6124  155.1168 C.ar    1  UNL1        0.1023
     19 C         142.6734  132.5977  153.7397 C.ar    1  UNL1        0.0414
     20 C         142.0209  133.8320  153.1912 C.ar    1  UNL1        0.1023
     21 N         141.9627  135.0810  154.0200 N.ar    1  UNL1       -0.2223
     22 C         142.8535  141.9456  165.3965 C.3     1  UNL1        0.0774
     23 C         143.6297  142.7536  166.3938 C.3     1  UNL1        0.0259
     24 C         142.3548  142.0785  166.8049 C.3     1  UNL1        0.0420
     25 C         141.3308  141.7655  167.8555 C.ar    1  UNL1       -0.0208
     26 C         141.0341  142.7641  168.9347 C.ar    1  UNL1       -0.0042
     27 C         140.0102  142.4510  169.9851 C.ar    1  UNL1       -0.0003
     28 C         139.2829  141.1394  169.9564 C.ar    1  UNL1       -0.0000
     29 C         139.5796  140.1409  168.8771 C.ar    1  UNL1       -0.0003
     30 C         140.6036  140.4539  167.8267 C.ar    1  UNL1       -0.0042
@<TRIPOS>BOND
     1     1     2    2
     2     2     3   am
     3     3    22    1
     4    22    23    1
     5    23    24    1
     6    24    25    1
     7    25    26   ar
     8    26    27   ar
     9    27    28   ar
    10    28    29   ar
    11    29    30   ar
    12     2     4   am
    13     4     5    1
    14     5     6    1
    15     6     7    1
    16     7    11    1
    17    11    12   ar
    18    12    13   ar
    19    13    16    1
    20    16    17   ar
    21    17    18   ar
    22    18    19   ar
    23    19    20   ar
    24    20    21   ar
    25    13    14   ar
    26    14    15   ar
    27     7     8    1
    28     8     9    1
    29    24    22    1
    30    30    25   ar
    31     9     4    1
    32    15    11   ar
    33    21    16   ar
    34     3    10    1
@<TRIPOS>MOLECULE
*****
 30 34 0 0 0
SMALL
GASTEIGER

@<TRIPOS>ATOM
      1 O         143.3055  140.4041  164.7792 O.2     1  UNL1       -0.2526
      2 C         142.1941  140.3238  163.7749 C.2     1  UNL1        0.3039
      3 N         140.9098  141.0600  164.0170 N.am    1  UNL1       -0.2901
      4 N         142.3671  139.5073  162.5285 N.am    1  UNL1       -0.2642
      5 C         143.6514  138.7711  162.2864 C.3     1  UNL1        0.0954
      6 C         143.8244  137.9546  161.0401 C.3     1  UNL1        0.0309
      7 C         142.7130  137.8743  160.0358 C.3     1  UNL1        0.0827
      8 C         141.4288  138.6105  160.2779 C.3     1  UNL1        0.0309
      9 C         141.2558  139.4270  161.5243 C.3     1  UNL1        0.0954
     10 H         140.1804  141.0073  163.3579 H       1  UNL1        0.1509
     11 C         142.8860  137.0578  158.7895 C.ar    1  UNL1        0.2363
     12 N         143.3090  135.6200  158.7290 N.ar    1  UNL1       -0.1882
     13 C         143.3508  135.2093  157.2869 C.ar    1  UNL1        0.2393
     14 N         142.9536  136.3933  156.4561 N.ar    1  UNL1       -0.0528
     15 O         142.6663  137.5358  157.3847 O.2     1  UNL1       -0.3369
     16 C         143.7242  133.8527  156.7670 C.ar    1  UNL1        0.2023
     17 N         143.1881  133.3816  155.4477 N.ar    1  UNL1       -0.2223
     18 C         143.5614  132.0250  154.9276 C.ar    1  UNL1        0.1023
     19 C         144.4709  131.1396  155.7270 C.ar    1  UNL1        0.0414
     20 C         145.0070  131.6108  157.0463 C.ar    1  UNL1        0.1023
     21 N         144.6336  132.9674  157.5663 N.ar    1  UNL1       -0.2223
     22 C         140.7369  141.8765  165.2633 C.3     1  UNL1        0.0774
     23 C         140.2394  143.1164  165.9454 C.3     1  UNL1        0.0259
     24 C         140.9348  142.0509  166.7399 C.3     1  UNL1        0.0420
     25 C         141.4506  141.5364  168.0512 C.ar    1  UNL1       -0.0208
     26 C         140.7250  140.4322  168.7613 C.ar    1  UNL1       -0.0042
     27 C         141.2408  139.9178  170.0725 C.ar    1  UNL1       -0.0003
     28 C         142.4821  140.5076  170.6736 C.ar    1  UNL1       -0.0000
     29 C         143.2077  141.6117  169.9635 C.ar    1  UNL1       -0.0003
     30 C         142.6919  142.1262  168.6523 C.ar    1  UNL1       -0.0042
@<TRIPOS>BOND
     1     1     2    2
     2     2     3   am
     3     3    22    1
     4    22    23    1
     5    23    24    1
     6    24    25    1
     7    25    26   ar
     8    26    27   ar
     9    27    28   ar
    10    28    29   ar
    11    29    30   ar
    12     2     4   am
    13     4     5    1
    14     5     6    1
    15     6     7    1
    16     7    11    1
    17    11    12   ar
    18    12    13   ar
    19    13    16    1
    20    16    17   ar
    21    17    18   ar
    22    18    19   ar
    23    19    20   ar
    24    20    21   ar
    25    13    14   ar
    26    14    15   ar
    27     7     8    1
    28     8     9    1
    29    24    22    1
    30    30    25   ar
    31     9     4    1
    32    15    11   ar
    33    21    16   ar
    34     3    10    1
