@<TRIPOS>MOLECULE
*****
 32 34 0 0 0
SMALL
GASTEIGER

@<TRIPOS>ATOM
      1 N         138.2910  141.2231  161.9985 N.3     1  UNL1       -0.2700
      2 C         137.9863  140.0322  161.1389 C.3     1  UNL1        0.0579
      3 C         137.7319  138.6961  161.7715 C.3     1  UNL1        0.0173
      4 C         137.9359  140.1774  159.6468 C.3     1  UNL1        0.0173
      5 C         139.2914  142.2425  161.5403 C.3     1  UNL1        0.0771
      6 C         140.7384  141.8683  161.4120 C.3     1  UNL1        0.0465
      7 C         142.3979  142.7626  163.3071 C.ar    1  UNL1        0.0764
      8 N         143.0753  142.1520  164.4980 N.ar    1  UNL1       -0.1698
      9 N         142.6764  140.7077  164.5684 N.ar    1  UNL1       -0.2288
     10 C         143.0351  139.6130  165.5290 C.ar    1  UNL1        0.1003
     11 C         142.4699  138.2362  165.3421 C.ar    1  UNL1        0.0207
     12 C         141.5460  137.9542  164.1946 C.ar    1  UNL1        0.0031
     13 C         141.1872  139.0489  163.2340 C.ar    1  UNL1        0.0189
     14 C         141.7525  140.4257  163.4209 C.ar    1  UNL1        0.0801
     15 C         141.5803  141.6956  162.6414 C.ar    1  UNL1        0.0121
     16 C         143.4697  145.1161  163.5560 C.3     1  UNL1        0.0067
     17 C         142.5171  144.1895  162.8604 C.3     1  UNL1        0.0473
     18 C         137.5952  141.3947  163.3162 C.3     1  UNL1        0.0991
     19 C         138.3096  141.0567  164.5911 C.ar    1  UNL1       -0.0061
     20 C         138.1578  139.6930  165.1970 C.ar    1  UNL1       -0.0029
     21 C         138.8723  139.3550  166.4719 C.ar    1  UNL1       -0.0003
     22 C         139.7385  140.3807  167.1409 C.ar    1  UNL1        0.0001
     23 C         139.8904  141.7444  166.5350 C.ar    1  UNL1       -0.0003
     24 C         139.1759  142.0825  165.2601 C.ar    1  UNL1       -0.0029
     25 C         140.4530  140.0427  168.4158 C.2     1  UNL1        0.0047
     26 C         141.3569  141.0521  169.0592 C.2     1  UNL1        0.0598
     27 C         142.0713  140.7141  170.3341 C.2     1  UNL1        0.2679
     28 O         141.5811  141.2695  171.6384 O.2     1  UNL1       -0.2681
     29 N         143.2760  139.8208  170.3048 N.am    1  UNL1       -0.1934
     30 O         143.9904  139.4829  171.5797 O.3     1  UNL1       -0.2949
     31 H         143.5978  139.4563  169.4487 H       1  UNL1        0.1825
     32 H         143.5478  139.9200  172.3240 H       1  UNL1        0.2414
@<TRIPOS>BOND
     1    16    17    1
     2    17     7    1
     3     7     8   ar
     4     8     9   ar
     5     9    10   ar
     6    10    11   ar
     7    11    12   ar
     8    12    13   ar
     9    13    14   ar
    10    14    15   ar
    11    15     6    1
    12     6     5    1
    13     5     1    1
    14     1    18    1
    15    18    19    1
    16    19    20   ar
    17    20    21   ar
    18    21    22   ar
    19    22    25    1
    20    25    26    2
    21    26    27    1
    22    27    28    2
    23    27    29   am
    24    29    30    1
    25    22    23   ar
    26    23    24   ar
    27     1     2    1
    28     2     3    1
    29     2     4    1
    30    15     7   ar
    31    24    19   ar
    32    14     9   ar
    33    29    31    1
    34    30    32    1
@<TRIPOS>MOLECULE
*****
 32 34 0 0 0
SMALL
GASTEIGER

@<TRIPOS>ATOM
      1 N         144.0289  140.7144  161.8166 N.3     1  UNL1       -0.2700
      2 C         143.9602  139.5950  160.8205 C.3     1  UNL1        0.0579
      3 C         144.0217  138.1708  161.2872 C.3     1  UNL1        0.0173
      4 C         143.8300  139.8999  159.3576 C.3     1  UNL1        0.0173
      5 C         143.3404  142.0160  161.5309 C.3     1  UNL1        0.0771
      6 C         141.8421  142.0803  161.4967 C.3     1  UNL1        0.0465
      7 C         140.5939  142.9585  163.6912 C.ar    1  UNL1        0.0764
      8 N         139.8429  142.3094  164.8157 N.ar    1  UNL1       -0.1698
      9 N         139.8386  140.8286  164.5764 N.ar    1  UNL1       -0.2288
     10 C         139.2500  139.6881  165.3527 C.ar    1  UNL1        0.1003
     11 C         139.4097  138.2816  164.8566 C.ar    1  UNL1        0.0207
     12 C         140.1581  138.0156  163.5841 C.ar    1  UNL1        0.0031
     13 C         140.7467  139.1561  162.8078 C.ar    1  UNL1        0.0189
     14 C         140.5870  140.5626  163.3039 C.ar    1  UNL1        0.0801
     15 C         141.0538  141.8789  162.7569 C.ar    1  UNL1        0.0121
     16 C         142.1840  145.0055  163.8695 C.3     1  UNL1        0.0067
     17 C         140.8416  144.4291  163.5294 C.3     1  UNL1        0.0473
     18 C         144.7861  140.5322  163.0986 C.3     1  UNL1        0.0991
     19 C         144.0433  140.3316  164.3863 C.ar    1  UNL1       -0.0061
     20 C         143.7063  138.9453  164.8496 C.ar    1  UNL1       -0.0029
     21 C         142.9635  138.7448  166.1373 C.ar    1  UNL1       -0.0003
     22 C         142.5577  139.9305  166.9616 C.ar    1  UNL1        0.0001
     23 C         142.8947  141.3167  166.4983 C.ar    1  UNL1       -0.0003
     24 C         143.6375  141.5173  165.2106 C.ar    1  UNL1       -0.0029
     25 C         141.8149  139.7299  168.2493 C.2     1  UNL1        0.0047
     26 C         140.7538  140.7060  168.6628 C.2     1  UNL1        0.0598
     27 C         140.0109  140.5055  169.9504 C.2     1  UNL1        0.2679
     28 O         139.0850  141.5719  170.4560 O.2     1  UNL1       -0.2681
     29 N         140.1939  139.2387  170.7325 N.am    1  UNL1       -0.1934
     30 O         139.4511  139.0383  172.0202 O.3     1  UNL1       -0.2949
     31 H         140.8016  138.5388  170.4007 H       1  UNL1        0.1825
     32 H         138.9006  139.8163  172.2004 H       1  UNL1        0.2414
@<TRIPOS>BOND
     1    16    17    1
     2    17     7    1
     3     7     8   ar
     4     8     9   ar
     5     9    10   ar
     6    10    11   ar
     7    11    12   ar
     8    12    13   ar
     9    13    14   ar
    10    14    15   ar
    11    15     6    1
    12     6     5    1
    13     5     1    1
    14     1    18    1
    15    18    19    1
    16    19    20   ar
    17    20    21   ar
    18    21    22   ar
    19    22    25    1
    20    25    26    2
    21    26    27    1
    22    27    28    2
    23    27    29   am
    24    29    30    1
    25    22    23   ar
    26    23    24   ar
    27     1     2    1
    28     2     3    1
    29     2     4    1
    30    15     7   ar
    31    24    19   ar
    32    14     9   ar
    33    29    31    1
    34    30    32    1
@<TRIPOS>MOLECULE
*****
 32 34 0 0 0
SMALL
GASTEIGER

@<TRIPOS>ATOM
      1 N         140.4797  138.1725  162.2649 N.3     1  UNL1       -0.2700
      2 C         139.2956  138.2778  161.3501 C.3     1  UNL1        0.0579
      3 C         137.9083  138.3092  161.9197 C.3     1  UNL1        0.0173
      4 C         139.4988  138.3518  159.8658 C.3     1  UNL1        0.0173
      5 C         141.8242  138.6577  161.8102 C.3     1  UNL1        0.0771
      6 C         142.0726  140.1271  161.6382 C.3     1  UNL1        0.0465
      7 C         143.2709  141.3490  163.6915 C.ar    1  UNL1        0.0764
      8 N         142.8266  142.2907  164.7711 N.ar    1  UNL1       -0.1698
      9 N         141.3622  142.5551  164.5819 N.ar    1  UNL1       -0.2288
     10 C         140.3888  143.4040  165.3446 C.ar    1  UNL1        0.1003
     11 C         138.9547  143.4746  164.9107 C.ar    1  UNL1        0.0207
     12 C         138.4940  142.6963  163.7140 C.ar    1  UNL1        0.0031
     13 C         139.4675  141.8474  162.9513 C.ar    1  UNL1        0.0189
     14 C         140.9015  141.7768  163.3852 C.ar    1  UNL1        0.0801
     15 C         142.0812  141.0314  162.8349 C.ar    1  UNL1        0.0121
     16 C         145.1004  139.5867  164.2369 C.3     1  UNL1        0.0067
     17 C         144.6609  140.8181  163.5016 C.3     1  UNL1        0.0473
     18 C         140.3193  137.5820  163.6344 C.3     1  UNL1        0.0991
     19 C         140.4568  138.4534  164.8476 C.ar    1  UNL1       -0.0061
     20 C         141.7890  138.5951  165.5222 C.ar    1  UNL1       -0.0029
     21 C         141.9263  139.4665  166.7354 C.ar    1  UNL1       -0.0003
     22 C         140.7315  140.1961  167.2740 C.ar    1  UNL1        0.0001
     23 C         139.3993  140.0544  166.5994 C.ar    1  UNL1       -0.0003
     24 C         139.2619  139.1830  165.3862 C.ar    1  UNL1       -0.0029
     25 C         140.8689  141.0675  168.4872 C.2     1  UNL1        0.0047
     26 C         141.9858  142.0651  168.5713 C.2     1  UNL1        0.0598
     27 C         142.1233  142.9366  169.7845 C.2     1  UNL1        0.2679
     28 O         140.9001  143.4942  170.4498 O.2     1  UNL1       -0.2681
     29 N         143.4840  143.2503  170.3324 N.am    1  UNL1       -0.1934
     30 O         143.6214  144.1218  171.5455 O.3     1  UNL1       -0.2949
     31 H         144.2869  142.8843  169.8957 H       1  UNL1        0.1825
     32 H         142.7415  144.3954  171.8484 H       1  UNL1        0.2414
@<TRIPOS>BOND
     1    16    17    1
     2    17     7    1
     3     7     8   ar
     4     8     9   ar
     5     9    10   ar
     6    10    11   ar
     7    11    12   ar
     8    12    13   ar
     9    13    14   ar
    10    14    15   ar
    11    15     6    1
    12     6     5    1
    13     5     1    1
    14     1    18    1
    15    18    19    1
    16    19    20   ar
    17    20    21   ar
    18    21    22   ar
    19    22    25    1
    20    25    26    2
    21    26    27    1
    22    27    28    2
    23    27    29   am
    24    29    30    1
    25    22    23   ar
    26    23    24   ar
    27     1     2    1
    28     2     3    1
    29     2     4    1
    30    15     7   ar
    31    24    19   ar
    32    14     9   ar
    33    29    31    1
    34    30    32    1
@<TRIPOS>MOLECULE
*****
 32 34 0 0 0
SMALL
GASTEIGER

@<TRIPOS>ATOM
      1 N         142.9149  143.2125  161.8779 N.3     1  UNL1       -0.2700
      2 C         144.2059  142.6151  161.4024 C.3     1  UNL1        0.0579
      3 C         145.2223  142.1369  162.3966 C.3     1  UNL1        0.0173
      4 C         144.4807  142.4957  159.9326 C.3     1  UNL1        0.0173
      5 C         141.6521  142.9854  161.1008 C.3     1  UNL1        0.0771
      6 C         141.0304  141.6208  161.0621 C.3     1  UNL1        0.0465
      7 C         139.1218  141.1134  162.8635 C.ar    1  UNL1        0.0764
      8 N         139.0507  140.3320  164.1419 N.ar    1  UNL1       -0.1698
      9 N         140.4016  139.7303  164.3932 N.ar    1  UNL1       -0.2288
     10 C         140.9237  138.8624  165.4995 C.ar    1  UNL1        0.1003
     11 C         142.3519  138.4040  165.4827 C.ar    1  UNL1        0.0207
     12 C         143.2579  138.8136  164.3596 C.ar    1  UNL1        0.0031
     13 C         142.7357  139.6815  163.2532 C.ar    1  UNL1        0.0189
     14 C         141.3076  140.1399  163.2700 C.ar    1  UNL1        0.0801
     15 C         140.5166  140.9947  162.3247 C.ar    1  UNL1        0.0121
     16 C         137.8786  143.3581  162.4560 C.3     1  UNL1        0.0067
     17 C         137.9958  141.8792  162.2345 C.3     1  UNL1        0.0473
     18 C         142.8864  144.0371  163.1306 C.3     1  UNL1        0.0991
     19 C         142.2788  143.4779  164.3829 C.ar    1  UNL1       -0.0061
     20 C         140.8412  143.7565  164.7081 C.ar    1  UNL1       -0.0029
     21 C         140.2336  143.1973  165.9604 C.ar    1  UNL1       -0.0003
     22 C         141.0636  142.3595  166.8874 C.ar    1  UNL1        0.0001
     23 C         142.5011  142.0809  166.5621 C.ar    1  UNL1       -0.0003
     24 C         143.1088  142.6401  165.3099 C.ar    1  UNL1       -0.0029
     25 C         140.4559  141.8003  168.1396 C.2     1  UNL1        0.0047
     26 C         141.3127  141.5631  169.3477 C.2     1  UNL1        0.0598
     27 C         140.7051  141.0039  170.6000 C.2     1  UNL1        0.2679
     28 O         140.6472  141.8405  171.8437 O.2     1  UNL1       -0.2681
     29 N         140.1555  139.6083  170.6087 N.am    1  UNL1       -0.1934
     30 O         139.5480  139.0492  171.8610 O.3     1  UNL1       -0.2949
     31 H         140.1935  139.0592  169.7924 H       1  UNL1        0.1825
     32 H         139.5901  139.7144  172.5657 H       1  UNL1        0.2414
@<TRIPOS>BOND
     1    16    17    1
     2    17     7    1
     3     7     8   ar
     4     8     9   ar
     5     9    10   ar
     6    10    11   ar
     7    11    12   ar
     8    12    13   ar
     9    13    14   ar
    10    14    15   ar
    11    15     6    1
    12     6     5    1
    13     5     1    1
    14     1    18    1
    15    18    19    1
    16    19    20   ar
    17    20    21   ar
    18    21    22   ar
    19    22    25    1
    20    25    26    2
    21    26    27    1
    22    27    28    2
    23    27    29   am
    24    29    30    1
    25    22    23   ar
    26    23    24   ar
    27     1     2    1
    28     2     3    1
    29     2     4    1
    30    15     7   ar
    31    24    19   ar
    32    14     9   ar
    33    29    31    1
    34    30    32    1
@<TRIPOS>MOLECULE
*****
 32 34 0 0 0
SMALL
GASTEIGER

@<TRIPOS>ATOM
      1 N         140.4159  138.5472  161.5307 N.3     1  UNL1       -0.2700
      2 C         139.3004  138.6933  160.5385 C.3     1  UNL1        0.0579
      3 C         139.6041  138.7423  159.0704 C.3     1  UNL1        0.0173
      4 C         137.8812  138.7902  161.0145 C.3     1  UNL1        0.0173
      5 C         141.7368  139.2113  161.2772 C.3     1  UNL1        0.0771
      6 C         141.8487  140.7060  161.3372 C.3     1  UNL1        0.0465
      7 C         142.6450  141.7798  163.6519 C.ar    1  UNL1        0.0764
      8 N         141.9613  142.4894  164.7828 N.ar    1  UNL1       -0.1698
      9 N         140.4986  142.5732  164.4607 N.ar    1  UNL1       -0.2288
     10 C         139.3389  143.1635  165.2067 C.ar    1  UNL1        0.1003
     11 C         137.9589  143.0959  164.6226 C.ar    1  UNL1        0.0207
     12 C         137.7387  142.4380  163.2927 C.ar    1  UNL1        0.0031
     13 C         138.8985  141.8477  162.5468 C.ar    1  UNL1        0.0189
     14 C         140.2784  141.9153  163.1308 C.ar    1  UNL1        0.0801
     15 C         141.6050  141.4249  162.6310 C.ar    1  UNL1        0.0121
     16 C         144.6134  140.0966  163.8583 C.3     1  UNL1        0.0067
     17 C         144.1114  141.4779  163.5585 C.3     1  UNL1        0.0473
     18 C         140.2105  137.7373  162.7763 C.3     1  UNL1        0.0991
     19 C         140.0662  138.4239  164.1021 C.ar    1  UNL1       -0.0061
     20 C         141.2779  138.6879  164.9459 C.ar    1  UNL1       -0.0029
     21 C         141.1335  139.3746  166.2716 C.ar    1  UNL1       -0.0003
     22 C         139.7774  139.7973  166.7536 C.ar    1  UNL1        0.0001
     23 C         138.5657  139.5334  165.9098 C.ar    1  UNL1       -0.0003
     24 C         138.7100  138.8467  164.5841 C.ar    1  UNL1       -0.0029
     25 C         139.6331  140.4840  168.0794 C.2     1  UNL1        0.0047
     26 C         140.4917  141.6694  168.4073 C.2     1  UNL1        0.0598
     27 C         140.3474  142.3562  169.7331 C.2     1  UNL1        0.2679
     28 O         140.0544  143.8263  169.7882 O.2     1  UNL1       -0.2681
     29 N         140.4962  141.5730  171.0037 N.am    1  UNL1       -0.1934
     30 O         140.3519  142.2598  172.3294 O.3     1  UNL1       -0.2949
     31 H         140.6885  140.6081  170.9675 H       1  UNL1        0.1825
     32 H         140.1653  143.2010  172.1873 H       1  UNL1        0.2414
@<TRIPOS>BOND
     1    16    17    1
     2    17     7    1
     3     7     8   ar
     4     8     9   ar
     5     9    10   ar
     6    10    11   ar
     7    11    12   ar
     8    12    13   ar
     9    13    14   ar
    10    14    15   ar
    11    15     6    1
    12     6     5    1
    13     5     1    1
    14     1    18    1
    15    18    19    1
    16    19    20   ar
    17    20    21   ar
    18    21    22   ar
    19    22    25    1
    20    25    26    2
    21    26    27    1
    22    27    28    2
    23    27    29   am
    24    29    30    1
    25    22    23   ar
    26    23    24   ar
    27     1     2    1
    28     2     3    1
    29     2     4    1
    30    15     7   ar
    31    24    19   ar
    32    14     9   ar
    33    29    31    1
    34    30    32    1
@<TRIPOS>MOLECULE
*****
 32 34 0 0 0
SMALL
GASTEIGER

@<TRIPOS>ATOM
      1 N         142.0196  144.1713  161.8827 N.3     1  UNL1       -0.2700
      2 C         140.9447  145.0201  161.2711 C.3     1  UNL1        0.0579
      3 C         140.0859  145.8868  162.1437 C.3     1  UNL1        0.0173
      4 C         140.7285  145.0022  159.7868 C.3     1  UNL1        0.0173
      5 C         142.4098  142.8748  161.2371 C.3     1  UNL1        0.0771
      6 C         141.4074  141.7653  161.1167 C.3     1  UNL1        0.0465
      7 C         139.5174  140.9370  162.8158 C.ar    1  UNL1        0.0764
      8 N         139.5073  140.1280  164.0789 N.ar    1  UNL1       -0.1698
      9 N         140.9212  139.7337  164.3881 N.ar    1  UNL1       -0.2288
     10 C         141.5180  138.9330  165.5073 C.ar    1  UNL1        0.1003
     11 C         142.9986  138.6977  165.5545 C.ar    1  UNL1        0.0207
     12 C         143.8825  139.2630  164.4825 C.ar    1  UNL1        0.0031
     13 C         143.2857  140.0637  163.3633 C.ar    1  UNL1        0.0189
     14 C         141.8050  140.2991  163.3161 C.ar    1  UNL1        0.0801
     15 C         140.9374  141.0427  162.3444 C.ar    1  UNL1        0.0121
     16 C         137.9600  142.9715  162.3851 C.3     1  UNL1        0.0067
     17 C         138.3179  141.5352  162.1423 C.3     1  UNL1        0.0473
     18 C         142.7043  144.6189  163.1399 C.3     1  UNL1        0.0991
     19 C         142.5354  143.8331  164.4064 C.ar    1  UNL1       -0.0061
     20 C         143.7356  143.2562  165.0969 C.ar    1  UNL1       -0.0029
     21 C         143.5666  142.4704  166.3634 C.ar    1  UNL1       -0.0003
     22 C         142.1974  142.2615  166.9394 C.ar    1  UNL1        0.0001
     23 C         140.9973  142.8384  166.2490 C.ar    1  UNL1       -0.0003
     24 C         141.1662  143.6242  164.9825 C.ar    1  UNL1       -0.0029
     25 C         142.0285  141.4757  168.2059 C.2     1  UNL1        0.0047
     26 C         140.8389  141.7192  169.0865 C.2     1  UNL1        0.0598
     27 C         140.6699  140.9335  170.3530 C.2     1  UNL1        0.2679
     28 O         141.4419  141.3152  171.5811 O.2     1  UNL1       -0.2681
     29 N         139.7288  139.7660  170.3915 N.am    1  UNL1       -0.1934
     30 O         139.5599  138.9803  171.6581 O.3     1  UNL1       -0.2949
     31 H         139.2221  139.5154  169.5855 H       1  UNL1        0.1825
     32 H         140.1265  139.3563  172.3498 H       1  UNL1        0.2414
@<TRIPOS>BOND
     1    16    17    1
     2    17     7    1
     3     7     8   ar
     4     8     9   ar
     5     9    10   ar
     6    10    11   ar
     7    11    12   ar
     8    12    13   ar
     9    13    14   ar
    10    14    15   ar
    11    15     6    1
    12     6     5    1
    13     5     1    1
    14     1    18    1
    15    18    19    1
    16    19    20   ar
    17    20    21   ar
    18    21    22   ar
    19    22    25    1
    20    25    26    2
    21    26    27    1
    22    27    28    2
    23    27    29   am
    24    29    30    1
    25    22    23   ar
    26    23    24   ar
    27     1     2    1
    28     2     3    1
    29     2     4    1
    30    15     7   ar
    31    24    19   ar
    32    14     9   ar
    33    29    31    1
    34    30    32    1
@<TRIPOS>MOLECULE
*****
 32 34 0 0 0
SMALL
GASTEIGER

@<TRIPOS>ATOM
      1 N         140.4401  138.1467  162.0602 N.3     1  UNL1       -0.2700
      2 C         141.6911  138.8727  161.6629 C.3     1  UNL1        0.0579
      3 C         141.6310  140.3265  161.2982 C.3     1  UNL1        0.0173
      4 C         143.0023  138.1449  161.6302 C.3     1  UNL1        0.0173
      5 C         139.2342  138.1872  161.1690 C.3     1  UNL1        0.0771
      6 C         138.0524  139.0315  161.5441 C.3     1  UNL1        0.0465
      7 C         138.1777  141.2537  160.0637 C.ar    1  UNL1        0.0764
      8 N         138.2179  142.7238  160.3589 N.ar    1  UNL1       -0.1698
      9 N         138.1740  142.8991  161.8479 N.ar    1  UNL1       -0.2288
     10 C         138.1866  144.1228  162.7153 C.ar    1  UNL1        0.1003
     11 C         138.1319  143.9846  164.2079 C.ar    1  UNL1        0.0207
     12 C         138.0645  142.6228  164.8331 C.ar    1  UNL1        0.0031
     13 C         138.0519  141.3991  163.9657 C.ar    1  UNL1        0.0189
     14 C         138.1066  141.5373  162.4732 C.ar    1  UNL1        0.0801
     15 C         138.1089  140.5204  161.3705 C.ar    1  UNL1        0.0121
     16 C         139.5038  140.4626  157.9743 C.3     1  UNL1        0.0067
     17 C         138.2021  140.6269  158.7012 C.3     1  UNL1        0.0473
     18 C         140.3948  137.3803  163.3488 C.3     1  UNL1        0.0991
     19 C         140.0996  138.0929  164.6353 C.ar    1  UNL1       -0.0061
     20 C         141.1697  138.9005  165.3080 C.ar    1  UNL1       -0.0029
     21 C         140.8744  139.6131  166.5945 C.ar    1  UNL1       -0.0003
     22 C         139.5091  139.5182  167.2083 C.ar    1  UNL1        0.0001
     23 C         138.4389  138.7105  166.5356 C.ar    1  UNL1       -0.0003
     24 C         138.7341  137.9979  165.2491 C.ar    1  UNL1       -0.0029
     25 C         139.2139  140.2308  168.4947 C.2     1  UNL1        0.0047
     26 C         140.3209  140.9046  169.2499 C.2     1  UNL1        0.0598
     27 C         140.0258  141.6173  170.5364 C.2     1  UNL1        0.2679
     28 O         140.6012  141.1083  171.8247 O.2     1  UNL1       -0.2681
     29 N         139.1554  142.8389  170.5346 N.am    1  UNL1       -0.1934
     30 O         138.8603  143.5515  171.8211 O.3     1  UNL1       -0.2949
     31 H         138.7778  143.1730  169.6890 H       1  UNL1        0.1825
     32 H         139.3056  143.0959  172.5526 H       1  UNL1        0.2414
@<TRIPOS>BOND
     1    16    17    1
     2    17     7    1
     3     7     8   ar
     4     8     9   ar
     5     9    10   ar
     6    10    11   ar
     7    11    12   ar
     8    12    13   ar
     9    13    14   ar
    10    14    15   ar
    11    15     6    1
    12     6     5    1
    13     5     1    1
    14     1    18    1
    15    18    19    1
    16    19    20   ar
    17    20    21   ar
    18    21    22   ar
    19    22    25    1
    20    25    26    2
    21    26    27    1
    22    27    28    2
    23    27    29   am
    24    29    30    1
    25    22    23   ar
    26    23    24   ar
    27     1     2    1
    28     2     3    1
    29     2     4    1
    30    15     7   ar
    31    24    19   ar
    32    14     9   ar
    33    29    31    1
    34    30    32    1
@<TRIPOS>MOLECULE
*****
 32 34 0 0 0
SMALL
GASTEIGER

@<TRIPOS>ATOM
      1 N         139.1067  143.1228  161.9274 N.3     1  UNL1       -0.2700
      2 C         139.7661  144.3523  161.3766 C.3     1  UNL1        0.0579
      3 C         140.0877  144.4397  159.9141 C.3     1  UNL1        0.0173
      4 C         140.1040  145.4945  162.2884 C.3     1  UNL1        0.0173
      5 C         139.2256  141.8174  161.1981 C.3     1  UNL1        0.0771
      6 C         140.5513  141.1196  161.1206 C.3     1  UNL1        0.0465
      7 C         141.0694  139.1763  162.8813 C.ar    1  UNL1        0.0764
      8 N         141.8645  139.0784  164.1495 N.ar    1  UNL1       -0.1698
      9 N         142.4754  140.4217  164.4185 N.ar    1  UNL1       -0.2288
     10 C         143.3580  140.9196  165.5244 C.ar    1  UNL1        0.1003
     11 C         143.8229  142.3457  165.5285 C.ar    1  UNL1        0.0207
     12 C         143.4053  143.2738  164.4266 C.ar    1  UNL1        0.0031
     13 C         142.5228  142.7759  163.3207 C.ar    1  UNL1        0.0189
     14 C         142.0578  141.3498  163.3166 C.ar    1  UNL1        0.0801
     15 C         141.1889  140.5801  162.3666 C.ar    1  UNL1        0.0121
     16 C         138.8119  137.9600  162.4639 C.3     1  UNL1        0.0067
     17 C         140.2914  138.0654  162.2405 C.3     1  UNL1        0.0473
     18 C         138.3283  143.1986  163.2073 C.3     1  UNL1        0.0991
     19 C         138.8894  142.5996  164.4628 C.ar    1  UNL1       -0.0061
     20 C         138.6086  141.1652  164.8001 C.ar    1  UNL1       -0.0029
     21 C         139.1698  140.5663  166.0557 C.ar    1  UNL1       -0.0003
     22 C         140.0117  141.4017  166.9740 C.ar    1  UNL1        0.0001
     23 C         140.2925  142.8361  166.6367 C.ar    1  UNL1       -0.0003
     24 C         139.7314  143.4351  165.3812 C.ar    1  UNL1       -0.0029
     25 C         140.5729  140.8028  168.2295 C.2     1  UNL1        0.0047
     26 C         141.5789  141.5654  169.0396 C.2     1  UNL1        0.0598
     27 C         142.1401  140.9665  170.2952 C.2     1  UNL1        0.2679
     28 O         141.4982  141.2610  171.6185 O.2     1  UNL1       -0.2681
     29 N         143.3431  140.0731  170.2275 N.am    1  UNL1       -0.1934
     30 O         143.9042  139.4742  171.4831 O.3     1  UNL1       -0.2949
     31 H         143.7644  139.8797  169.3590 H       1  UNL1        0.1825
     32 H         143.3757  139.7633  172.2434 H       1  UNL1        0.2414
@<TRIPOS>BOND
     1    16    17    1
     2    17     7    1
     3     7     8   ar
     4     8     9   ar
     5     9    10   ar
     6    10    11   ar
     7    11    12   ar
     8    12    13   ar
     9    13    14   ar
    10    14    15   ar
    11    15     6    1
    12     6     5    1
    13     5     1    1
    14     1    18    1
    15    18    19    1
    16    19    20   ar
    17    20    21   ar
    18    21    22   ar
    19    22    25    1
    20    25    26    2
    21    26    27    1
    22    27    28    2
    23    27    29   am
    24    29    30    1
    25    22    23   ar
    26    23    24   ar
    27     1     2    1
    28     2     3    1
    29     2     4    1
    30    15     7   ar
    31    24    19   ar
    32    14     9   ar
    33    29    31    1
    34    30    32    1
@<TRIPOS>MOLECULE
*****
 32 34 0 0 0
SMALL
GASTEIGER

@<TRIPOS>ATOM
      1 N         139.3118  140.1132  160.7217 N.3     1  UNL1       -0.2700
      2 C         138.7450  141.3429  160.0763 C.3     1  UNL1        0.0579
      3 C         138.2728  142.4858  160.9254 C.3     1  UNL1        0.0173
      4 C         138.6503  141.4298  158.5819 C.3     1  UNL1        0.0173
      5 C         140.7755  139.8087  160.5990 C.3     1  UNL1        0.0771
      6 C         141.7911  140.7998  161.0853 C.3     1  UNL1        0.0465
      7 C         141.5724  142.6263  163.0246 C.ar    1  UNL1        0.0764
      8 N         141.6559  142.5986  164.5220 N.ar    1  UNL1       -0.1698
      9 N         141.9263  141.1851  164.9451 N.ar    1  UNL1       -0.2288
     10 C         142.1071  140.5590  166.2961 C.ar    1  UNL1        0.1003
     11 C         142.3716  139.0870  166.4112 C.ar    1  UNL1        0.0207
     12 C         142.4551  138.2412  165.1753 C.ar    1  UNL1        0.0031
     13 C         142.2742  138.8673  163.8243 C.ar    1  UNL1        0.0189
     14 C         142.0098  140.3393  163.7092 C.ar    1  UNL1        0.0801
     15 C         141.7911  141.2300  162.5223 C.ar    1  UNL1        0.0121
     16 C         141.1181  145.1766  162.8250 C.3     1  UNL1        0.0067
     17 C         141.3153  143.8377  162.1781 C.3     1  UNL1        0.0473
     18 C         138.4151  139.1880  161.4897 C.3     1  UNL1        0.0991
     19 C         138.4649  139.1683  162.9887 C.ar    1  UNL1       -0.0061
     20 C         138.7345  137.8829  163.7134 C.ar    1  UNL1       -0.0029
     21 C         138.7843  137.8633  165.2125 C.ar    1  UNL1       -0.0003
     22 C         138.5645  139.1290  165.9869 C.ar    1  UNL1        0.0001
     23 C         138.2950  140.4144  165.2623 C.ar    1  UNL1       -0.0003
     24 C         138.2452  140.4341  163.7632 C.ar    1  UNL1       -0.0029
     25 C         138.6143  139.1093  167.4859 C.2     1  UNL1        0.0047
     26 C         139.2746  140.2325  168.2291 C.2     1  UNL1        0.0598
     27 C         139.3244  140.2129  169.7282 C.2     1  UNL1        0.2679
     28 O         138.0908  139.8834  170.5153 O.2     1  UNL1       -0.2681
     29 N         140.6079  140.5226  170.4402 N.am    1  UNL1       -0.1934
     30 O         140.6576  140.5030  171.9392 O.3     1  UNL1       -0.2949
     31 H         141.4175  140.7389  169.9236 H       1  UNL1        0.1825
     32 H         139.7823  140.2737  172.2888 H       1  UNL1        0.2414
@<TRIPOS>BOND
     1    16    17    1
     2    17     7    1
     3     7     8   ar
     4     8     9   ar
     5     9    10   ar
     6    10    11   ar
     7    11    12   ar
     8    12    13   ar
     9    13    14   ar
    10    14    15   ar
    11    15     6    1
    12     6     5    1
    13     5     1    1
    14     1    18    1
    15    18    19    1
    16    19    20   ar
    17    20    21   ar
    18    21    22   ar
    19    22    25    1
    20    25    26    2
    21    26    27    1
    22    27    28    2
    23    27    29   am
    24    29    30    1
    25    22    23   ar
    26    23    24   ar
    27     1     2    1
    28     2     3    1
    29     2     4    1
    30    15     7   ar
    31    24    19   ar
    32    14     9   ar
    33    29    31    1
    34    30    32    1
