@<TRIPOS>MOLECULE
*****
 36 39 0 0 0
SMALL
GASTEIGER

@<TRIPOS>ATOM
      1 C         137.7701  140.7156  161.6238 C.3     1  UNL1        0.2722
      2 O         138.1407  141.5738  159.1997 O.2     1  UNL1       -0.2707
      3 C         138.5037  141.5950  160.6550 C.2     1  UNL1        0.2701
      4 N         139.6002  142.4956  161.1414 N.am    1  UNL1       -0.2663
      5 H         139.8385  142.5095  162.0966 H       1  UNL1        0.1564
      6 C         140.3338  143.3749  160.1726 C.ar    1  UNL1        0.1344
      7 C         141.6921  142.9754  159.6773 C.ar    1  UNL1        0.0368
      8 C         142.4257  143.8547  158.7085 C.ar    1  UNL1        0.0341
      9 C         141.8009  145.1336  158.2350 C.ar    1  UNL1        0.1593
     10 F         142.5345  146.0130  157.2662 F       1  UNL1       -0.2025
     11 C         140.4426  145.5331  158.7303 C.ar    1  UNL1        0.1298
     12 N         139.7090  144.6537  159.6992 N.ar    1  UNL1       -0.2267
     13 C         137.6176  139.2507  161.3400 C.3     1  UNL1        0.1952
     14 O         138.3499  138.2443  162.1772 O.3     1  UNL1       -0.3467
     15 C         139.8417  138.1258  162.0737 C.3     1  UNL1        0.1740
     16 C         140.6123  137.4032  163.1386 C.3     1  UNL1        0.1692
     17 O         141.0473  138.1324  164.3751 O.3     1  UNL1       -0.3794
     18 H         141.6971  138.8124  164.1377 H       1  UNL1        0.2105
     19 O         137.1891  141.3013  162.8766 O.3     1  UNL1       -0.4517
     20 C         138.0962  141.8123  163.9565 C.ar    1  UNL1        0.2312
     21 N         138.5805  143.2314  163.9199 N.ar    1  UNL1       -0.1892
     22 C         139.4876  143.7423  164.9998 C.ar    1  UNL1        0.2029
     23 N         139.9103  142.8341  166.1162 N.ar    1  UNL1       -0.2046
     24 C         139.4260  141.4149  166.1528 C.ar    1  UNL1        0.1716
     25 C         138.5189  140.9040  165.0729 C.ar    1  UNL1        0.1098
     26 C         138.2047  139.4681  165.3723 C.ar    1  UNL1        0.1283
     27 N         138.9176  139.0917  166.6372 N.ar    1  UNL1       -0.1619
     28 N         139.6724  140.2949  167.1195 N.ar    1  UNL1       -0.2089
     29 C         140.5241  140.3656  168.3523 C.ar    1  UNL1        0.1222
     30 C         139.8813  140.4848  169.7022 C.ar    1  UNL1        0.1585
     31 F         138.3866  140.5334  169.8196 F       1  UNL1       -0.2026
     32 C         140.7330  140.5555  170.9349 C.ar    1  UNL1        0.0313
     33 C         142.2276  140.5070  170.8177 C.ar    1  UNL1        0.0033
     34 C         142.8704  140.3877  169.4677 C.ar    1  UNL1        0.0131
     35 C         142.0187  140.3170  168.2350 C.ar    1  UNL1        0.0776
     36 CL        142.6617  140.1977  166.8851 Cl      1  UNL1       -0.0806
@<TRIPOS>BOND
     1     2     3    2
     2     3     4   am
     3     4     6    1
     4     6     7   ar
     5     7     8   ar
     6     8     9   ar
     7     9    10    1
     8     9    11   ar
     9    11    12   ar
    10     3     1    1
    11     1    13    1
    12    13    14    1
    13    14    15    1
    14    15    16    1
    15    16    17    1
    16     1    19    1
    17    19    20    1
    18    20    21   ar
    19    21    22   ar
    20    22    23   ar
    21    23    24   ar
    22    24    25   ar
    23    25    26   ar
    24    26    27   ar
    25    27    28   ar
    26    28    29    1
    27    29    30   ar
    28    30    31    1
    29    30    32   ar
    30    32    33   ar
    31    33    34   ar
    32    34    35   ar
    33    35    36    1
    34    12     6   ar
    35    25    20   ar
    36    35    29   ar
    37    28    24   ar
    38     4     5    1
    39    17    18    1
@<TRIPOS>MOLECULE
*****
 36 39 0 0 0
SMALL
GASTEIGER

@<TRIPOS>ATOM
      1 C         141.8891  138.4491  161.6681 C.3     1  UNL1        0.2722
      2 O         140.0031  140.1481  161.1143 O.2     1  UNL1       -0.2707
      3 C         141.3733  139.8576  161.6510 C.2     1  UNL1        0.2701
      4 N         142.2277  140.9755  162.1708 N.am    1  UNL1       -0.2663
      5 H         143.1270  140.7848  162.5231 H       1  UNL1        0.1564
      6 C         141.7120  142.3839  162.1538 C.ar    1  UNL1        0.1344
      7 C         141.1382  142.9876  163.4013 C.ar    1  UNL1        0.0368
      8 C         140.6225  144.3960  163.3843 C.ar    1  UNL1        0.0341
      9 C         140.6805  145.2008  162.1198 C.ar    1  UNL1        0.1593
     10 F         140.1648  146.6092  162.1028 F       1  UNL1       -0.2025
     11 C         141.2543  144.5971  160.8722 C.ar    1  UNL1        0.1298
     12 N         141.7700  143.1886  160.8893 N.ar    1  UNL1       -0.2267
     13 C         142.6240  137.9051  160.4790 C.3     1  UNL1        0.1952
     14 O         143.7326  138.6995  159.8547 O.3     1  UNL1       -0.3467
     15 C         143.4448  139.6050  158.6939 C.3     1  UNL1        0.1740
     16 C         143.8259  141.0542  158.7607 C.3     1  UNL1        0.1692
     17 O         144.2927  141.6480  160.0567 O.3     1  UNL1       -0.3794
     18 H         143.5634  141.6423  160.6962 H       1  UNL1        0.2105
     19 O         141.6699  137.5847  162.8742 O.3     1  UNL1       -0.4517
     20 C         140.8625  138.0992  164.0290 C.ar    1  UNL1        0.2312
     21 N         139.3925  137.8105  164.1042 N.ar    1  UNL1       -0.1892
     22 C         138.5853  138.3250  165.2589 C.ar    1  UNL1        0.2029
     23 N         139.2480  139.1283  166.3385 N.ar    1  UNL1       -0.2046
     24 C         140.7180  139.4170  166.2634 C.ar    1  UNL1        0.1716
     25 C         141.5253  138.9025  165.1086 C.ar    1  UNL1        0.1098
     26 C         142.9459  139.3431  165.3032 C.ar    1  UNL1        0.1283
     27 N         143.0165  140.1300  166.5783 N.ar    1  UNL1       -0.1619
     28 N         141.6396  140.1757  167.1717 N.ar    1  UNL1       -0.2089
     29 C         141.2523  140.8598  168.4491 C.ar    1  UNL1        0.1222
     30 C         141.4867  140.1795  169.7653 C.ar    1  UNL1        0.1585
     31 F         142.1084  138.8150  169.8040 F       1  UNL1       -0.2026
     32 C         141.0994  140.8637  171.0427 C.ar    1  UNL1        0.0313
     33 C         140.4777  142.2283  171.0041 C.ar    1  UNL1        0.0033
     34 C         140.2434  142.9086  169.6879 C.ar    1  UNL1        0.0131
     35 C         140.6307  142.2244  168.4105 C.ar    1  UNL1        0.0776
     36 CL        140.3963  142.9048  167.0944 Cl      1  UNL1       -0.0806
@<TRIPOS>BOND
     1     2     3    2
     2     3     4   am
     3     4     6    1
     4     6     7   ar
     5     7     8   ar
     6     8     9   ar
     7     9    10    1
     8     9    11   ar
     9    11    12   ar
    10     3     1    1
    11     1    13    1
    12    13    14    1
    13    14    15    1
    14    15    16    1
    15    16    17    1
    16     1    19    1
    17    19    20    1
    18    20    21   ar
    19    21    22   ar
    20    22    23   ar
    21    23    24   ar
    22    24    25   ar
    23    25    26   ar
    24    26    27   ar
    25    27    28   ar
    26    28    29    1
    27    29    30   ar
    28    30    31    1
    29    30    32   ar
    30    32    33   ar
    31    33    34   ar
    32    34    35   ar
    33    35    36    1
    34    12     6   ar
    35    25    20   ar
    36    35    29   ar
    37    28    24   ar
    38     4     5    1
    39    17    18    1
@<TRIPOS>MOLECULE
*****
 36 39 0 0 0
SMALL
GASTEIGER

@<TRIPOS>ATOM
      1 C         137.7969  140.9311  161.5615 C.3     1  UNL1        0.2722
      2 O         140.2766  141.3166  160.8887 O.2     1  UNL1       -0.2707
      3 C         138.8266  141.6822  160.7705 C.2     1  UNL1        0.2701
      4 N         138.4063  142.7988  159.8613 N.am    1  UNL1       -0.2663
      5 H         137.4547  143.0387  159.7838 H       1  UNL1        0.1564
      6 C         139.4360  143.5499  159.0704 C.ar    1  UNL1        0.1344
      7 C         140.2195  144.6539  159.7163 C.ar    1  UNL1        0.0368
      8 C         141.2492  145.4049  158.9254 C.ar    1  UNL1        0.0341
      9 C         141.4953  145.0520  157.4884 C.ar    1  UNL1        0.1593
     10 F         142.5250  145.8031  156.6974 F       1  UNL1       -0.2025
     11 C         140.7118  143.9480  156.8424 C.ar    1  UNL1        0.1298
     12 N         139.6821  143.1969  157.6335 N.ar    1  UNL1       -0.2267
     13 C         137.4592  139.5152  161.1996 C.3     1  UNL1        0.1952
     14 O         138.5558  138.5294  160.9245 O.3     1  UNL1       -0.3467
     15 C         139.3500  137.9547  162.0600 C.3     1  UNL1        0.1740
     16 C         140.8437  137.8623  161.9592 C.3     1  UNL1        0.1692
     17 O         141.5924  138.7866  161.0454 O.3     1  UNL1       -0.3794
     18 H         141.3554  138.5933  160.1249 H       1  UNL1        0.2105
     19 O         137.1049  141.5961  162.7143 O.3     1  UNL1       -0.4517
     20 C         137.9075  142.3207  163.7540 C.ar    1  UNL1        0.2312
     21 N         137.9358  143.8203  163.7691 N.ar    1  UNL1       -0.1892
     22 C         138.7384  144.5448  164.8087 C.ar    1  UNL1        0.2029
     23 N         139.5127  143.7697  165.8333 N.ar    1  UNL1       -0.2046
     24 C         139.4844  142.2700  165.8182 C.ar    1  UNL1        0.1716
     25 C         138.6818  141.5455  164.7785 C.ar    1  UNL1        0.1098
     26 C         138.8434  140.0725  165.0115 C.ar    1  UNL1        0.1283
     27 N         139.7458  139.8867  166.1951 N.ar    1  UNL1       -0.1619
     28 N         140.1420  141.2449  166.6937 N.ar    1  UNL1       -0.2089
     29 C         141.0384  141.5281  167.8625 C.ar    1  UNL1        0.1222
     30 C         142.3978  142.1213  167.6388 C.ar    1  UNL1        0.1585
     31 F         142.8609  142.4313  166.2461 F       1  UNL1       -0.2026
     32 C         143.2942  142.4045  168.8077 C.ar    1  UNL1        0.0313
     33 C         142.8312  142.0946  170.2003 C.ar    1  UNL1        0.0033
     34 C         141.4717  141.5014  170.4241 C.ar    1  UNL1        0.0131
     35 C         140.5754  141.2182  169.2552 C.ar    1  UNL1        0.0776
     36 CL        139.2159  140.6250  169.4790 Cl      1  UNL1       -0.0806
@<TRIPOS>BOND
     1     2     3    2
     2     3     4   am
     3     4     6    1
     4     6     7   ar
     5     7     8   ar
     6     8     9   ar
     7     9    10    1
     8     9    11   ar
     9    11    12   ar
    10     3     1    1
    11     1    13    1
    12    13    14    1
    13    14    15    1
    14    15    16    1
    15    16    17    1
    16     1    19    1
    17    19    20    1
    18    20    21   ar
    19    21    22   ar
    20    22    23   ar
    21    23    24   ar
    22    24    25   ar
    23    25    26   ar
    24    26    27   ar
    25    27    28   ar
    26    28    29    1
    27    29    30   ar
    28    30    31    1
    29    30    32   ar
    30    32    33   ar
    31    33    34   ar
    32    34    35   ar
    33    35    36    1
    34    12     6   ar
    35    25    20   ar
    36    35    29   ar
    37    28    24   ar
    38     4     5    1
    39    17    18    1
@<TRIPOS>MOLECULE
*****
 36 39 0 0 0
SMALL
GASTEIGER

@<TRIPOS>ATOM
      1 C         141.5781  144.1848  159.0922 C.3     1  UNL1        0.2722
      2 O         142.4803  146.2896  157.8649 O.2     1  UNL1       -0.2707
      3 C         141.4204  145.2429  158.0405 C.2     1  UNL1        0.2701
      4 N         140.2028  145.2541  157.1646 N.am    1  UNL1       -0.2663
      5 H         139.5071  144.5671  157.2799 H       1  UNL1        0.1564
      6 C         140.0451  146.3120  156.1130 C.ar    1  UNL1        0.1344
      7 C         139.1191  147.4688  156.3459 C.ar    1  UNL1        0.0368
      8 C         138.9614  148.5268  155.2943 C.ar    1  UNL1        0.0341
      9 C         139.7298  148.4279  154.0098 C.ar    1  UNL1        0.1593
     10 F         139.5721  149.4858  152.9582 F       1  UNL1       -0.2025
     11 C         140.6558  147.2711  153.7769 C.ar    1  UNL1        0.1298
     12 N         140.8134  146.2131  154.8286 N.ar    1  UNL1       -0.2267
     13 C         141.1901  142.7670  158.7937 C.3     1  UNL1        0.1952
     14 O         139.8538  142.4681  158.1812 O.3     1  UNL1       -0.3467
     15 C         138.5994  142.6885  158.9737 C.3     1  UNL1        0.1740
     16 C         138.5339  142.2583  160.4092 C.3     1  UNL1        0.1692
     17 O         137.8908  143.1491  161.4304 O.3     1  UNL1       -0.3794
     18 H         138.4143  143.9599  161.5277 H       1  UNL1        0.2105
     19 O         142.1237  144.5448  160.4422 O.3     1  UNL1       -0.4517
     20 C         141.2863  144.3372  161.6693 C.ar    1  UNL1        0.2312
     21 N         140.2631  145.3616  162.0612 N.ar    1  UNL1       -0.1892
     22 C         139.4257  145.1540  163.2882 C.ar    1  UNL1        0.2029
     23 N         139.6115  143.9220  164.1234 N.ar    1  UNL1       -0.2046
     24 C         140.6347  142.8975  163.7315 C.ar    1  UNL1        0.1716
     25 C         141.4720  143.1051  162.5045 C.ar    1  UNL1        0.1098
     26 C         142.3947  141.9302  162.3687 C.ar    1  UNL1        0.1283
     27 N         142.1275  140.9965  163.5118 N.ar    1  UNL1       -0.1619
     28 N         141.0398  141.5943  164.3541 N.ar    1  UNL1       -0.2089
     29 C         140.4590  140.9943  165.6002 C.ar    1  UNL1        0.1222
     30 C         139.2736  140.0797  165.5102 C.ar    1  UNL1        0.1585
     31 F         138.6688  139.7650  164.1740 F       1  UNL1       -0.2026
     32 C         138.6928  139.4797  166.7562 C.ar    1  UNL1        0.0313
     33 C         139.2976  139.7943  168.0924 C.ar    1  UNL1        0.0033
     34 C         140.4830  140.7089  168.1824 C.ar    1  UNL1        0.0131
     35 C         141.0638  141.3089  166.9363 C.ar    1  UNL1        0.0776
     36 CL        142.2492  142.2235  167.0264 Cl      1  UNL1       -0.0806
@<TRIPOS>BOND
     1     2     3    2
     2     3     4   am
     3     4     6    1
     4     6     7   ar
     5     7     8   ar
     6     8     9   ar
     7     9    10    1
     8     9    11   ar
     9    11    12   ar
    10     3     1    1
    11     1    13    1
    12    13    14    1
    13    14    15    1
    14    15    16    1
    15    16    17    1
    16     1    19    1
    17    19    20    1
    18    20    21   ar
    19    21    22   ar
    20    22    23   ar
    21    23    24   ar
    22    24    25   ar
    23    25    26   ar
    24    26    27   ar
    25    27    28   ar
    26    28    29    1
    27    29    30   ar
    28    30    31    1
    29    30    32   ar
    30    32    33   ar
    31    33    34   ar
    32    34    35   ar
    33    35    36    1
    34    12     6   ar
    35    25    20   ar
    36    35    29   ar
    37    28    24   ar
    38     4     5    1
    39    17    18    1
@<TRIPOS>MOLECULE
*****
 36 39 0 0 0
SMALL
GASTEIGER

@<TRIPOS>ATOM
      1 C         141.3003  144.4730  159.8490 C.3     1  UNL1        0.2722
      2 O         142.4214  146.1698  158.2323 O.2     1  UNL1       -0.2707
      3 C         141.2312  145.3503  158.6342 C.2     1  UNL1        0.2701
      4 N         139.9718  145.4079  157.8214 N.am    1  UNL1       -0.2663
      5 H         139.1906  144.8699  158.0852 H       1  UNL1        0.1564
      6 C         139.9027  146.2851  156.6066 C.ar    1  UNL1        0.1344
      7 C         140.6685  145.9163  155.3706 C.ar    1  UNL1        0.0368
      8 C         140.5993  146.7935  154.1559 C.ar    1  UNL1        0.0341
      9 C         139.7644  148.0396  154.1770 C.ar    1  UNL1        0.1593
     10 F         139.6953  148.9168  152.9623 F       1  UNL1       -0.2025
     11 C         138.9986  148.4083  155.4130 C.ar    1  UNL1        0.1298
     12 N         139.0678  147.5310  156.6278 N.ar    1  UNL1       -0.2267
     13 C         141.4731  142.9910  159.6951 C.3     1  UNL1        0.1952
     14 O         142.8150  142.4257  159.3352 O.3     1  UNL1       -0.3467
     15 C         143.6988  141.8533  160.4036 C.3     1  UNL1        0.1740
     16 C         144.7627  142.7035  161.0321 C.3     1  UNL1        0.1692
     17 O         145.6786  142.1170  162.0651 O.3     1  UNL1       -0.3794
     18 H         145.1674  141.8855  162.8563 H       1  UNL1        0.2105
     19 O         141.1966  145.0778  161.2178 O.3     1  UNL1       -0.4517
     20 C         140.2536  144.4925  162.2269 C.ar    1  UNL1        0.2312
     21 N         138.7899  144.8136  162.1601 N.ar    1  UNL1       -0.1892
     22 C         137.8470  144.2283  163.1692 C.ar    1  UNL1        0.2029
     23 N         138.3677  143.3220  164.2450 N.ar    1  UNL1       -0.2046
     24 C         139.8314  143.0009  164.3118 C.ar    1  UNL1        0.1716
     25 C         140.7743  143.5862  163.3027 C.ar    1  UNL1        0.1098
     26 C         142.1555  143.0932  163.6182 C.ar    1  UNL1        0.1283
     27 N         142.0661  142.2032  164.8223 N.ar    1  UNL1       -0.1619
     28 N         140.6297  142.1462  165.2509 N.ar    1  UNL1       -0.2089
     29 C         140.0870  141.3706  166.4145 C.ar    1  UNL1        0.1222
     30 C         140.3874  141.8124  167.8161 C.ar    1  UNL1        0.1585
     31 F         141.2306  143.0299  168.0542 F       1  UNL1       -0.2026
     32 C         139.8446  141.0368  168.9796 C.ar    1  UNL1        0.0313
     33 C         139.0014  139.8193  168.7416 C.ar    1  UNL1        0.0033
     34 C         138.7010  139.3775  167.3400 C.ar    1  UNL1        0.0131
     35 C         139.2437  140.1531  166.1765 C.ar    1  UNL1        0.0776
     36 CL        138.9433  139.7111  164.7749 Cl      1  UNL1       -0.0806
@<TRIPOS>BOND
     1     2     3    2
     2     3     4   am
     3     4     6    1
     4     6     7   ar
     5     7     8   ar
     6     8     9   ar
     7     9    10    1
     8     9    11   ar
     9    11    12   ar
    10     3     1    1
    11     1    13    1
    12    13    14    1
    13    14    15    1
    14    15    16    1
    15    16    17    1
    16     1    19    1
    17    19    20    1
    18    20    21   ar
    19    21    22   ar
    20    22    23   ar
    21    23    24   ar
    22    24    25   ar
    23    25    26   ar
    24    26    27   ar
    25    27    28   ar
    26    28    29    1
    27    29    30   ar
    28    30    31    1
    29    30    32   ar
    30    32    33   ar
    31    33    34   ar
    32    34    35   ar
    33    35    36    1
    34    12     6   ar
    35    25    20   ar
    36    35    29   ar
    37    28    24   ar
    38     4     5    1
    39    17    18    1
@<TRIPOS>MOLECULE
*****
 36 39 0 0 0
SMALL
GASTEIGER

@<TRIPOS>ATOM
      1 C         144.1513  140.2134  161.3328 C.3     1  UNL1        0.2722
      2 O         141.9602  140.7625  160.0492 O.2     1  UNL1       -0.2707
      3 C         143.3183  141.1731  160.5358 C.2     1  UNL1        0.2701
      4 N         143.8435  142.5435  160.2256 N.am    1  UNL1       -0.2663
      5 H         144.7349  142.8130  160.5450 H       1  UNL1        0.1564
      6 C         143.0106  143.5032  159.4286 C.ar    1  UNL1        0.1344
      7 C         143.1346  143.5422  157.9343 C.ar    1  UNL1        0.0368
      8 C         142.3017  144.5019  157.1373 C.ar    1  UNL1        0.0341
      9 C         141.3447  145.4227  157.8348 C.ar    1  UNL1        0.1593
     10 F         140.5118  146.3824  157.0378 F       1  UNL1       -0.2025
     11 C         141.2207  145.3838  159.3291 C.ar    1  UNL1        0.1298
     12 N         142.0537  144.4240  160.1261 N.ar    1  UNL1       -0.2267
     13 C         144.0874  138.7434  161.0411 C.3     1  UNL1        0.1952
     14 O         143.3047  137.8336  161.9410 O.3     1  UNL1       -0.3467
     15 C         141.8195  137.7077  161.7721 C.3     1  UNL1        0.1740
     16 C         140.8946  138.4421  162.6969 C.3     1  UNL1        0.1692
     17 O         140.9538  139.9384  162.7844 O.3     1  UNL1       -0.3794
     18 H         141.8065  140.2068  163.1608 H       1  UNL1        0.2105
     19 O         145.0483  140.7237  162.4214 O.3     1  UNL1       -0.4517
     20 C         144.4901  141.5983  163.5048 C.ar    1  UNL1        0.2312
     21 N         144.5860  143.0906  163.3880 N.ar    1  UNL1       -0.1892
     22 C         144.0278  143.9651  164.4713 C.ar    1  UNL1        0.2029
     23 N         143.3737  143.3472  165.6715 N.ar    1  UNL1       -0.2046
     24 C         143.2777  141.8549  165.7883 C.ar    1  UNL1        0.1716
     25 C         143.8359  140.9804  164.7049 C.ar    1  UNL1        0.1098
     26 C         143.5966  139.5514  165.0933 C.ar    1  UNL1        0.1283
     27 N         142.8904  139.5428  166.4166 N.ar    1  UNL1       -0.1619
     28 N         142.6934  140.9664  166.8462 N.ar    1  UNL1       -0.2089
     29 C         142.0287  141.4216  168.1114 C.ar    1  UNL1        0.1222
     30 C         142.8018  142.2184  169.1201 C.ar    1  UNL1        0.1585
     31 F         144.2397  142.5600  168.8635 F       1  UNL1       -0.2026
     32 C         142.1371  142.6736  170.3854 C.ar    1  UNL1        0.0313
     33 C         140.6992  142.3321  170.6420 C.ar    1  UNL1        0.0033
     34 C         139.9261  141.5353  169.6334 C.ar    1  UNL1        0.0131
     35 C         140.5908  141.0801  168.3681 C.ar    1  UNL1        0.0776
     36 CL        139.8176  140.2833  167.3595 Cl      1  UNL1       -0.0806
@<TRIPOS>BOND
     1     2     3    2
     2     3     4   am
     3     4     6    1
     4     6     7   ar
     5     7     8   ar
     6     8     9   ar
     7     9    10    1
     8     9    11   ar
     9    11    12   ar
    10     3     1    1
    11     1    13    1
    12    13    14    1
    13    14    15    1
    14    15    16    1
    15    16    17    1
    16     1    19    1
    17    19    20    1
    18    20    21   ar
    19    21    22   ar
    20    22    23   ar
    21    23    24   ar
    22    24    25   ar
    23    25    26   ar
    24    26    27   ar
    25    27    28   ar
    26    28    29    1
    27    29    30   ar
    28    30    31    1
    29    30    32   ar
    30    32    33   ar
    31    33    34   ar
    32    34    35   ar
    33    35    36    1
    34    12     6   ar
    35    25    20   ar
    36    35    29   ar
    37    28    24   ar
    38     4     5    1
    39    17    18    1
@<TRIPOS>MOLECULE
*****
 36 39 0 0 0
SMALL
GASTEIGER

@<TRIPOS>ATOM
      1 C         140.9260  143.4850  159.5570 C.3     1  UNL1        0.2722
      2 O         141.8987  145.7206  158.6591 O.2     1  UNL1       -0.2707
      3 C         140.9611  144.5593  158.5106 C.2     1  UNL1        0.2701
      4 N         140.0584  144.4722  157.3157 N.am    1  UNL1       -0.2663
      5 H         139.4430  143.7099  157.2183 H       1  UNL1        0.1564
      6 C         140.0935  145.5463  156.2694 C.ar    1  UNL1        0.1344
      7 C         139.3165  146.8137  156.4694 C.ar    1  UNL1        0.0368
      8 C         139.3515  147.8879  155.4230 C.ar    1  UNL1        0.0341
      9 C         140.1635  147.6947  154.1767 C.ar    1  UNL1        0.1593
     10 F         140.1986  148.7689  153.1303 F       1  UNL1       -0.2025
     11 C         140.9405  146.4273  153.9767 C.ar    1  UNL1        0.1298
     12 N         140.9055  145.3531  155.0231 N.ar    1  UNL1       -0.2267
     13 C         139.6130  142.9061  159.9938 C.3     1  UNL1        0.1952
     14 O         138.6531  143.7402  160.7892 O.3     1  UNL1       -0.3467
     15 C         139.0428  144.2414  162.1483 C.3     1  UNL1        0.1740
     16 C         139.4851  145.6638  162.3246 C.3     1  UNL1        0.1692
     17 O         140.6653  146.1828  161.5580 O.3     1  UNL1       -0.3794
     18 H         141.4685  145.7254  161.8523 H       1  UNL1        0.2105
     19 O         142.2040  142.9897  160.1664 O.3     1  UNL1       -0.4517
     20 C         142.4969  143.2549  161.6135 C.ar    1  UNL1        0.2312
     21 N         143.2621  144.4821  162.0112 N.ar    1  UNL1       -0.1892
     22 C         143.5550  144.7472  163.4583 C.ar    1  UNL1        0.2029
     23 N         143.0826  143.7850  164.5076 N.ar    1  UNL1       -0.2046
     24 C         142.3174  142.5578  164.1099 C.ar    1  UNL1        0.1716
     25 C         142.0246  142.2927  162.6629 C.ar    1  UNL1        0.1098
     26 C         141.2545  141.0085  162.5734 C.ar    1  UNL1        0.1283
     27 N         141.0714  140.4799  163.9652 N.ar    1  UNL1       -0.1619
     28 N         141.7284  141.4374  164.9148 N.ar    1  UNL1       -0.2089
     29 C         141.7861  141.2989  166.4073 C.ar    1  UNL1        0.1222
     30 C         141.0539  142.2747  167.2800 C.ar    1  UNL1        0.1585
     31 F         140.2638  143.3890  166.6602 F       1  UNL1       -0.2026
     32 C         141.1116  142.1362  168.7724 C.ar    1  UNL1        0.0313
     33 C         141.9017  141.0219  169.3923 C.ar    1  UNL1        0.0033
     34 C         142.6339  140.0462  168.5195 C.ar    1  UNL1        0.0131
     35 C         142.5762  140.1846  167.0271 C.ar    1  UNL1        0.0776
     36 CL        143.3085  139.2088  166.1544 Cl      1  UNL1       -0.0806
@<TRIPOS>BOND
     1     2     3    2
     2     3     4   am
     3     4     6    1
     4     6     7   ar
     5     7     8   ar
     6     8     9   ar
     7     9    10    1
     8     9    11   ar
     9    11    12   ar
    10     3     1    1
    11     1    13    1
    12    13    14    1
    13    14    15    1
    14    15    16    1
    15    16    17    1
    16     1    19    1
    17    19    20    1
    18    20    21   ar
    19    21    22   ar
    20    22    23   ar
    21    23    24   ar
    22    24    25   ar
    23    25    26   ar
    24    26    27   ar
    25    27    28   ar
    26    28    29    1
    27    29    30   ar
    28    30    31    1
    29    30    32   ar
    30    32    33   ar
    31    33    34   ar
    32    34    35   ar
    33    35    36    1
    34    12     6   ar
    35    25    20   ar
    36    35    29   ar
    37    28    24   ar
    38     4     5    1
    39    17    18    1
@<TRIPOS>MOLECULE
*****
 36 39 0 0 0
SMALL
GASTEIGER

@<TRIPOS>ATOM
      1 C         139.4891  138.0793  161.5932 C.3     1  UNL1        0.2722
      2 O         139.3090  138.6823  159.0725 O.2     1  UNL1       -0.2707
      3 C         140.1470  138.3733  160.2776 C.2     1  UNL1        0.2701
      4 N         141.6429  138.3583  160.1671 N.am    1  UNL1       -0.2663
      5 H         142.1929  138.1555  160.9581 H       1  UNL1        0.1564
      6 C         142.3007  138.6523  158.8516 C.ar    1  UNL1        0.1344
      7 C         142.5000  137.5531  157.8505 C.ar    1  UNL1        0.0368
      8 C         143.1579  137.8471  156.5349 C.ar    1  UNL1        0.0341
      9 C         143.6165  139.2403  156.2204 C.ar    1  UNL1        0.1593
     10 F         144.2744  139.5342  154.9049 F       1  UNL1       -0.2025
     11 C         143.4173  140.3394  157.2215 C.ar    1  UNL1        0.1298
     12 N         142.7593  140.0453  158.5371 N.ar    1  UNL1       -0.2267
     13 C         138.0798  138.5274  161.8438 C.3     1  UNL1        0.1952
     14 O         137.6075  139.8488  161.3138 O.3     1  UNL1       -0.3467
     15 C         137.7330  141.0831  162.1569 C.3     1  UNL1        0.1740
     16 C         138.1465  142.3812  161.5292 C.3     1  UNL1        0.1692
     17 O         137.6069  143.6763  162.0597 O.3     1  UNL1       -0.3794
     18 H         136.6507  143.7170  161.9019 H       1  UNL1        0.2105
     19 O         140.2407  137.3372  162.6583 O.3     1  UNL1       -0.4517
     20 C         141.2173  138.0659  163.5332 C.ar    1  UNL1        0.2312
     21 N         142.6547  138.1799  163.1198 N.ar    1  UNL1       -0.1892
     22 C         143.6311  138.9086  163.9947 C.ar    1  UNL1        0.2029
     23 N         143.1702  139.5234  165.2829 N.ar    1  UNL1       -0.2046
     24 C         141.7329  139.4094  165.6964 C.ar    1  UNL1        0.1716
     25 C         140.7564  138.6807  164.8215 C.ar    1  UNL1        0.1098
     26 C         139.4122  138.7305  165.4855 C.ar    1  UNL1        0.1283
     27 N         139.5580  139.4900  166.7707 N.ar    1  UNL1       -0.1619
     28 N         140.9923  139.9096  166.9010 N.ar    1  UNL1       -0.2089
     29 C         141.5823  140.6920  168.0367 C.ar    1  UNL1        0.1222
     30 C         142.5053  140.0209  169.0101 C.ar    1  UNL1        0.1585
     31 F         142.8384  138.5673  168.8480 F       1  UNL1       -0.2026
     32 C         143.0954  140.8033  170.1458 C.ar    1  UNL1        0.0313
     33 C         142.7624  142.2569  170.3080 C.ar    1  UNL1        0.0033
     34 C         141.8394  142.9279  169.3346 C.ar    1  UNL1        0.0131
     35 C         141.2493  142.1455  168.1989 C.ar    1  UNL1        0.0776
     36 CL        140.3263  142.8167  167.2255 Cl      1  UNL1       -0.0806
@<TRIPOS>BOND
     1     2     3    2
     2     3     4   am
     3     4     6    1
     4     6     7   ar
     5     7     8   ar
     6     8     9   ar
     7     9    10    1
     8     9    11   ar
     9    11    12   ar
    10     3     1    1
    11     1    13    1
    12    13    14    1
    13    14    15    1
    14    15    16    1
    15    16    17    1
    16     1    19    1
    17    19    20    1
    18    20    21   ar
    19    21    22   ar
    20    22    23   ar
    21    23    24   ar
    22    24    25   ar
    23    25    26   ar
    24    26    27   ar
    25    27    28   ar
    26    28    29    1
    27    29    30   ar
    28    30    31    1
    29    30    32   ar
    30    32    33   ar
    31    33    34   ar
    32    34    35   ar
    33    35    36    1
    34    12     6   ar
    35    25    20   ar
    36    35    29   ar
    37    28    24   ar
    38     4     5    1
    39    17    18    1
@<TRIPOS>MOLECULE
*****
 36 39 0 0 0
SMALL
GASTEIGER

@<TRIPOS>ATOM
      1 C         139.7313  139.2066  159.7319 C.3     1  UNL1        0.2722
      2 O         139.1089  138.7412  157.2527 O.2     1  UNL1       -0.2707
      3 C         138.9450  139.5542  158.5026 C.2     1  UNL1        0.2701
      4 N         137.9949  140.7147  158.5233 N.am    1  UNL1       -0.2663
      5 H         137.8874  141.2483  159.3436 H       1  UNL1        0.1564
      6 C         137.2087  141.0623  157.2941 C.ar    1  UNL1        0.1344
      7 C         137.7055  142.1277  156.3623 C.ar    1  UNL1        0.0368
      8 C         136.9193  142.4753  155.1331 C.ar    1  UNL1        0.0341
      9 C         135.6361  141.7576  154.8357 C.ar    1  UNL1        0.1593
     10 F         134.8499  142.1052  153.6065 F       1  UNL1       -0.2025
     11 C         135.1393  140.6922  155.7675 C.ar    1  UNL1        0.1298
     12 N         135.9256  140.3446  156.9967 N.ar    1  UNL1       -0.2267
     13 C         141.1114  139.7626  159.9215 C.3     1  UNL1        0.1952
     14 O         142.2826  139.1076  159.2512 O.3     1  UNL1       -0.3467
     15 C         142.8247  137.8143  159.7838 C.3     1  UNL1        0.1740
     16 C         143.7046  137.8135  160.9986 C.3     1  UNL1        0.1692
     17 O         144.5942  138.9877  161.2810 O.3     1  UNL1       -0.3794
     18 H         145.2717  139.0537  160.5899 H       1  UNL1        0.2105
     19 O         139.1374  138.3029  160.7714 O.3     1  UNL1       -0.4517
     20 C         139.7024  138.2849  162.1608 C.ar    1  UNL1        0.2312
     21 N         140.6739  137.2147  162.5616 N.ar    1  UNL1       -0.1892
     22 C         141.2389  137.1967  163.9510 C.ar    1  UNL1        0.2029
     23 N         140.8324  138.2491  164.9396 N.ar    1  UNL1       -0.2046
     24 C         139.8609  139.3193  164.5388 C.ar    1  UNL1        0.1716
     25 C         139.2959  139.3372  163.1494 C.ar    1  UNL1        0.1098
     26 C         138.3646  140.5083  163.0428 C.ar    1  UNL1        0.1283
     27 N         138.3540  141.2141  164.3663 N.ar    1  UNL1       -0.1619
     28 N         139.2788  140.4793  165.2909 N.ar    1  UNL1       -0.2089
     29 C         139.5703  140.8409  166.7172 C.ar    1  UNL1        0.1222
     30 C         139.0742  139.9653  167.8294 C.ar    1  UNL1        0.1585
     31 F         138.2864  138.7280  167.5154 F       1  UNL1       -0.2026
     32 C         139.3657  140.3269  169.2557 C.ar    1  UNL1        0.0313
     33 C         140.1534  141.5642  169.5697 C.ar    1  UNL1        0.0033
     34 C         140.6496  142.4398  168.4575 C.ar    1  UNL1        0.0131
     35 C         140.3581  142.0781  167.0313 C.ar    1  UNL1        0.0776
     36 CL        140.8543  142.9538  165.9191 Cl      1  UNL1       -0.0806
@<TRIPOS>BOND
     1     2     3    2
     2     3     4   am
     3     4     6    1
     4     6     7   ar
     5     7     8   ar
     6     8     9   ar
     7     9    10    1
     8     9    11   ar
     9    11    12   ar
    10     3     1    1
    11     1    13    1
    12    13    14    1
    13    14    15    1
    14    15    16    1
    15    16    17    1
    16     1    19    1
    17    19    20    1
    18    20    21   ar
    19    21    22   ar
    20    22    23   ar
    21    23    24   ar
    22    24    25   ar
    23    25    26   ar
    24    26    27   ar
    25    27    28   ar
    26    28    29    1
    27    29    30   ar
    28    30    31    1
    29    30    32   ar
    30    32    33   ar
    31    33    34   ar
    32    34    35   ar
    33    35    36    1
    34    12     6   ar
    35    25    20   ar
    36    35    29   ar
    37    28    24   ar
    38     4     5    1
    39    17    18    1
