@<TRIPOS>MOLECULE
*****
 33 36 0 0 0
SMALL
GASTEIGER

@<TRIPOS>ATOM
      1 N         139.6732  143.8459  159.6775 N.am    1  UNL1       -0.2684
      2 C         140.4357  142.6602  160.1899 C.2     1  UNL1        0.3078
      3 O         141.4938  142.0238  159.3381 O.2     1  UNL1       -0.2522
      4 N         140.1402  142.1109  161.5541 N.am    1  UNL1       -0.2605
      5 C         140.9028  140.9252  162.0665 C.3     1  UNL1        0.1164
      6 C         140.6073  140.3759  163.4307 C.3     1  UNL1        0.1137
      7 N         139.5493  141.0123  164.2824 N.pl3   1  UNL1       -0.2901
      8 C         138.7867  142.1981  163.7700 C.3     1  UNL1        0.0941
      9 C         137.7287  142.8345  164.6217 C.3     1  UNL1        0.0233
     10 C         139.0822  142.7474  162.4058 C.3     1  UNL1        0.1147
     11 H         138.9788  144.2636  160.2365 H       1  UNL1        0.1564
     12 C         139.2537  140.4631  165.6466 C.ar    1  UNL1        0.1554
     13 N         138.2963  139.3190  165.8032 N.ar    1  UNL1       -0.1974
     14 C         138.0008  138.7697  167.1673 C.ar    1  UNL1        0.2162
     15 N         137.0433  137.6256  167.3239 N.pl3   1  UNL1       -0.3274
     16 N         138.6625  139.3645  168.3749 N.ar    1  UNL1       -0.1949
     17 C         139.6199  140.5085  168.2183 C.ar    1  UNL1        0.1685
     18 C         139.9155  141.0578  166.8542 C.ar    1  UNL1        0.1486
     19 N         140.8960  142.1824  167.0097 N.ar    1  UNL1       -0.2194
     20 C         141.2063  142.3281  168.4700 C.ar    1  UNL1        0.1798
     21 N         140.4177  141.2936  169.2170 N.ar    1  UNL1       -0.2923
     22 C         140.4255  141.0814  170.7019 C.3     1  UNL1        0.1335
     23 H         136.6089  137.2352  166.5314 H       1  UNL1        0.1452
     24 H         136.8494  137.2651  168.2193 H       1  UNL1        0.1452
     25 C         140.5596  145.4938  155.5850 C.ar    1  UNL1        0.1385
     26 C         141.2613  146.0533  156.7869 C.ar    1  UNL1        0.0382
     27 C         140.9658  145.5040  158.1511 C.ar    1  UNL1        0.0175
     28 C         139.9687  144.3952  158.3133 C.ar    1  UNL1        0.0478
     29 C         139.2671  143.8357  157.1114 C.ar    1  UNL1       -0.0053
     30 C         138.2700  142.7269  157.2736 C.3     1  UNL1        0.0324
     31 C         139.5625  144.3850  155.7472 C.ar    1  UNL1        0.0339
     32 C         140.4405  147.4411  153.8693 C.3     1  UNL1        0.2525
     33 O         140.8551  146.0431  154.2207 O.3     1  UNL1       -0.4714
@<TRIPOS>BOND
     1    32    33    1
     2    33    25    1
     3    25    26   ar
     4    26    27   ar
     5    27    28   ar
     6    28     1    1
     7     1     2   am
     8     2     3    2
     9     2     4   am
    10     4     5    1
    11     5     6    1
    12     6     7    1
    13     7    12    1
    14    12    13   ar
    15    13    14   ar
    16    14    15    1
    17    14    16   ar
    18    16    17   ar
    19    17    18   ar
    20    18    19   ar
    21    19    20   ar
    22    20    21   ar
    23    21    22    1
    24     7     8    1
    25     8     9    1
    26     8    10    1
    27    28    29   ar
    28    29    30    1
    29    29    31   ar
    30    31    25   ar
    31    10     4    1
    32    18    12   ar
    33    21    17   ar
    34     1    11    1
    35    15    23    1
    36    15    24    1
@<TRIPOS>MOLECULE
*****
 33 36 0 0 0
SMALL
GASTEIGER

@<TRIPOS>ATOM
      1 N         140.4100  140.3008  164.7031 N.am    1  UNL1       -0.2684
      2 C         141.3926  139.2807  164.2095 C.2     1  UNL1        0.3078
      3 O         142.2226  138.5039  165.1882 O.2     1  UNL1       -0.2522
      4 N         141.5455  139.0374  162.7373 N.am    1  UNL1       -0.2605
      5 C         142.5282  138.0173  162.2437 C.3     1  UNL1        0.1164
      6 C         142.6810  137.7739  160.7715 C.3     1  UNL1        0.1137
      7 N         141.8510  138.5507  159.7929 N.pl3   1  UNL1       -0.2901
      8 C         140.8683  139.5708  160.2864 C.3     1  UNL1        0.0941
      9 C         140.0384  140.3476  159.3078 C.3     1  UNL1        0.0233
     10 C         140.7155  139.8142  161.7587 C.3     1  UNL1        0.1147
     11 H         139.8653  140.8106  164.0608 H       1  UNL1        0.1564
     12 C         142.0038  138.3074  158.3206 C.ar    1  UNL1        0.1554
     13 N         141.1020  137.3318  157.6241 N.ar    1  UNL1       -0.1974
     14 C         141.2547  137.0885  156.1520 C.ar    1  UNL1        0.2162
     15 N         140.3529  136.1128  155.4555 N.pl3   1  UNL1       -0.3274
     16 N         142.3091  137.8208  155.3761 N.ar    1  UNL1       -0.1949
     17 C         143.2108  138.7964  156.0725 C.ar    1  UNL1        0.1685
     18 C         143.0582  139.0397  157.5448 C.ar    1  UNL1        0.1486
     19 N         144.0851  140.0527  157.9562 N.ar    1  UNL1       -0.2194
     20 C         144.8725  140.4355  156.7381 C.ar    1  UNL1        0.1798
     21 N         144.3322  139.6590  155.5740 N.ar    1  UNL1       -0.2923
     22 C         144.8264  139.7323  154.1597 C.3     1  UNL1        0.1335
     23 H         139.6608  135.6322  155.9647 H       1  UNL1        0.1452
     24 H         140.4532  135.9531  154.4892 H       1  UNL1        0.1452
     25 C         139.9516  141.0308  169.1198 C.ar    1  UNL1        0.1385
     26 C         140.9509  141.8217  168.3286 C.ar    1  UNL1        0.0382
     27 C         141.1037  141.5783  166.8564 C.ar    1  UNL1        0.0175
     28 C         140.2572  140.5441  166.1753 C.ar    1  UNL1        0.0478
     29 C         139.2579  139.7533  166.9665 C.ar    1  UNL1       -0.0053
     30 C         138.4114  138.7191  166.2854 C.3     1  UNL1        0.0324
     31 C         139.1051  139.9966  168.4387 C.ar    1  UNL1        0.0339
     32 C         140.9655  141.7666  171.3959 C.3     1  UNL1        0.2525
     33 O         139.7987  141.2741  170.5920 O.3     1  UNL1       -0.4714
@<TRIPOS>BOND
     1    32    33    1
     2    33    25    1
     3    25    26   ar
     4    26    27   ar
     5    27    28   ar
     6    28     1    1
     7     1     2   am
     8     2     3    2
     9     2     4   am
    10     4     5    1
    11     5     6    1
    12     6     7    1
    13     7    12    1
    14    12    13   ar
    15    13    14   ar
    16    14    15    1
    17    14    16   ar
    18    16    17   ar
    19    17    18   ar
    20    18    19   ar
    21    19    20   ar
    22    20    21   ar
    23    21    22    1
    24     7     8    1
    25     8     9    1
    26     8    10    1
    27    28    29   ar
    28    29    30    1
    29    29    31   ar
    30    31    25   ar
    31    10     4    1
    32    18    12   ar
    33    21    17   ar
    34     1    11    1
    35    15    23    1
    36    15    24    1
@<TRIPOS>MOLECULE
*****
 33 36 0 0 0
SMALL
GASTEIGER

@<TRIPOS>ATOM
      1 N         142.2588  136.4509  156.9690 N.am    1  UNL1       -0.2684
      2 C         143.1734  137.6327  156.8407 C.2     1  UNL1        0.3078
      3 O         144.1734  137.6894  155.7239 O.2     1  UNL1       -0.2522
      4 N         143.0883  138.7579  157.8290 N.am    1  UNL1       -0.2605
      5 C         144.0030  139.9398  157.7005 C.3     1  UNL1        0.1164
      6 C         143.9179  141.0650  158.6888 C.3     1  UNL1        0.1137
      7 N         142.9180  141.0082  159.8055 N.pl3   1  UNL1       -0.2901
      8 C         142.0033  139.8264  159.9339 C.3     1  UNL1        0.0941
      9 C         141.0034  139.7697  161.0506 C.3     1  UNL1        0.0233
     10 C         142.0884  138.7012  158.9456 C.3     1  UNL1        0.1147
     11 H         141.6025  136.4137  157.7020 H       1  UNL1        0.1564
     12 C         142.8328  142.1334  160.7938 C.ar    1  UNL1        0.1554
     13 N         141.9455  143.3105  160.5156 N.ar    1  UNL1       -0.1974
     14 C         141.8603  144.4356  161.5038 C.ar    1  UNL1        0.2162
     15 N         140.9730  145.6127  161.2255 N.pl3   1  UNL1       -0.3274
     16 N         142.6622  144.3838  162.7703 N.ar    1  UNL1       -0.1949
     17 C         143.5494  143.2068  163.0486 C.ar    1  UNL1        0.1685
     18 C         143.6347  142.0816  162.0604 C.ar    1  UNL1        0.1486
     19 N         144.5886  141.0591  162.6032 N.ar    1  UNL1       -0.2194
     20 C         145.0928  141.5524  163.9270 C.ar    1  UNL1        0.1798
     21 N         144.4506  142.8797  164.2023 N.ar    1  UNL1       -0.2923
     22 C         144.6709  143.7306  165.4178 C.3     1  UNL1        0.1335
     23 H         140.4467  145.6468  160.3943 H       1  UNL1        0.1452
     24 H         140.9171  146.3512  161.8742 H       1  UNL1        0.1452
     25 C         142.5142  133.0753  154.0042 C.ar    1  UNL1        0.1385
     26 C         141.8008  134.3429  153.6379 C.ar    1  UNL1        0.0382
     27 C         141.7157  135.4681  154.6261 C.ar    1  UNL1        0.0175
     28 C         142.3439  135.3257  155.9808 C.ar    1  UNL1        0.0478
     29 C         143.0573  134.0581  156.3471 C.ar    1  UNL1       -0.0053
     30 C         143.6856  133.9157  157.7017 C.3     1  UNL1        0.0324
     31 C         143.1425  132.9329  155.3588 C.ar    1  UNL1        0.0339
     32 C         143.5842  130.8386  153.2281 C.3     1  UNL1        0.2525
     33 O         142.5994  131.9500  153.0160 O.3     1  UNL1       -0.4714
@<TRIPOS>BOND
     1    32    33    1
     2    33    25    1
     3    25    26   ar
     4    26    27   ar
     5    27    28   ar
     6    28     1    1
     7     1     2   am
     8     2     3    2
     9     2     4   am
    10     4     5    1
    11     5     6    1
    12     6     7    1
    13     7    12    1
    14    12    13   ar
    15    13    14   ar
    16    14    15    1
    17    14    16   ar
    18    16    17   ar
    19    17    18   ar
    20    18    19   ar
    21    19    20   ar
    22    20    21   ar
    23    21    22    1
    24     7     8    1
    25     8     9    1
    26     8    10    1
    27    28    29   ar
    28    29    30    1
    29    29    31   ar
    30    31    25   ar
    31    10     4    1
    32    18    12   ar
    33    21    17   ar
    34     1    11    1
    35    15    23    1
    36    15    24    1
@<TRIPOS>MOLECULE
*****
 33 36 0 0 0
SMALL
GASTEIGER

@<TRIPOS>ATOM
      1 N         141.2490  140.3262  164.6603 N.am    1  UNL1       -0.2684
      2 C         141.9597  139.1647  164.0314 C.2     1  UNL1        0.3078
      3 O         142.3339  137.9744  164.8640 O.2     1  UNL1       -0.2522
      4 N         142.2963  139.1934  162.5699 N.am    1  UNL1       -0.2605
      5 C         143.0071  138.0318  161.9410 C.3     1  UNL1        0.1164
      6 C         143.3437  138.0605  160.4795 C.3     1  UNL1        0.1137
      7 N         142.9695  139.2509  159.6470 N.pl3   1  UNL1       -0.2901
      8 C         142.2588  140.4124  160.2759 C.3     1  UNL1        0.0941
      9 C         141.8846  141.6027  159.4433 C.3     1  UNL1        0.0233
     10 C         141.9222  140.3837  161.7374 C.3     1  UNL1        0.1147
     11 H         141.0034  141.1075  164.1138 H       1  UNL1        0.1564
     12 C         143.3061  139.2796  158.1855 C.ar    1  UNL1        0.1554
     13 N         144.5243  140.0150  157.7108 N.ar    1  UNL1       -0.1974
     14 C         144.8609  140.0439  156.2494 C.ar    1  UNL1        0.2162
     15 N         146.0791  140.7793  155.7746 N.pl3   1  UNL1       -0.3274
     16 N         143.9794  139.3373  155.2626 N.ar    1  UNL1       -0.1949
     17 C         142.7613  138.6019  155.7373 C.ar    1  UNL1        0.1685
     18 C         142.4246  138.5731  157.1988 C.ar    1  UNL1        0.1486
     19 N         141.1677  137.7724  157.3692 N.ar    1  UNL1       -0.2194
     20 C         140.7276  137.3064  156.0131 C.ar    1  UNL1        0.1798
     21 N         141.7124  137.8190  155.0045 N.ar    1  UNL1       -0.2923
     22 C         141.6579  137.5892  153.5232 C.3     1  UNL1        0.1335
     23 H         146.6577  141.2430  156.4223 H       1  UNL1        0.1452
     24 H         146.3000  140.7982  154.8154 H       1  UNL1        0.1452
     25 C         140.2391  140.2402  169.0447 C.ar    1  UNL1        0.1385
     26 C         141.6112  140.6511  168.5990 C.ar    1  UNL1        0.0382
     27 C         141.9478  140.6798  167.1375 C.ar    1  UNL1        0.0175
     28 C         140.9124  140.2975  166.1217 C.ar    1  UNL1        0.0478
     29 C         139.5403  139.8866  166.5674 C.ar    1  UNL1       -0.0053
     30 C         138.5049  139.5044  165.5517 C.3     1  UNL1        0.0324
     31 C         139.2037  139.8579  168.0289 C.ar    1  UNL1        0.0339
     32 C         140.7267  140.9986  171.4812 C.3     1  UNL1        0.2525
     33 O         139.9024  140.2114  170.5062 O.3     1  UNL1       -0.4714
@<TRIPOS>BOND
     1    32    33    1
     2    33    25    1
     3    25    26   ar
     4    26    27   ar
     5    27    28   ar
     6    28     1    1
     7     1     2   am
     8     2     3    2
     9     2     4   am
    10     4     5    1
    11     5     6    1
    12     6     7    1
    13     7    12    1
    14    12    13   ar
    15    13    14   ar
    16    14    15    1
    17    14    16   ar
    18    16    17   ar
    19    17    18   ar
    20    18    19   ar
    21    19    20   ar
    22    20    21   ar
    23    21    22    1
    24     7     8    1
    25     8     9    1
    26     8    10    1
    27    28    29   ar
    28    29    30    1
    29    29    31   ar
    30    31    25   ar
    31    10     4    1
    32    18    12   ar
    33    21    17   ar
    34     1    11    1
    35    15    23    1
    36    15    24    1
@<TRIPOS>MOLECULE
*****
 33 36 0 0 0
SMALL
GASTEIGER

@<TRIPOS>ATOM
      1 N         141.7288  138.4113  159.0720 N.am    1  UNL1       -0.2684
      2 C         140.6857  139.3605  159.5825 C.2     1  UNL1        0.3078
      3 O         140.0143  140.3148  158.6398 O.2     1  UNL1       -0.2522
      4 N         140.3139  139.3557  161.0357 N.am    1  UNL1       -0.2605
      5 C         139.2708  140.3050  161.5462 C.3     1  UNL1        0.1164
      6 C         138.8990  140.3001  162.9994 C.3     1  UNL1        0.1137
      7 N         139.5704  139.3459  163.9420 N.pl3   1  UNL1       -0.2901
      8 C         140.6135  138.3966  163.4316 C.3     1  UNL1        0.0941
      9 C         141.2849  137.4424  164.3743 C.3     1  UNL1        0.0233
     10 C         140.9853  138.4014  161.9784 C.3     1  UNL1        0.1147
     11 H         142.1695  137.7850  159.6908 H       1  UNL1        0.1564
     12 C         139.1986  139.3410  165.3953 C.ar    1  UNL1        0.1554
     13 N         138.1201  138.4235  165.8904 N.ar    1  UNL1       -0.1974
     14 C         137.7483  138.4186  167.3435 C.ar    1  UNL1        0.2162
     15 N         136.6698  137.5011  167.8387 N.pl3   1  UNL1       -0.3274
     16 N         138.4550  139.3310  168.3016 N.ar    1  UNL1       -0.1949
     17 C         139.5336  140.2484  167.8066 C.ar    1  UNL1        0.1685
     18 C         139.9054  140.2534  166.3534 C.ar    1  UNL1        0.1486
     19 N         141.0005  141.2597  166.1585 N.ar    1  UNL1       -0.2194
     20 C         141.3055  141.8767  167.4913 C.ar    1  UNL1        0.1798
     21 N         140.3989  141.2517  168.5099 N.ar    1  UNL1       -0.2923
     22 C         140.3639  141.5734  169.9745 C.3     1  UNL1        0.1335
     23 H         136.2059  136.9022  167.2099 H       1  UNL1        0.1452
     24 H         136.4258  137.4979  168.7925 H       1  UNL1        0.1452
     25 C         142.8442  138.4258  154.7125 C.ar    1  UNL1        0.1385
     26 C         141.7974  137.4767  155.2156 C.ar    1  UNL1        0.0382
     27 C         141.4256  137.4718  156.6688 C.ar    1  UNL1        0.0175
     28 C         142.1006  138.4161  157.6188 C.ar    1  UNL1        0.0478
     29 C         143.1475  139.3653  157.1157 C.ar    1  UNL1       -0.0053
     30 C         143.8225  140.3096  158.0657 C.3     1  UNL1        0.0324
     31 C         143.5193  139.3702  155.6625 C.ar    1  UNL1        0.0339
     32 C         142.2177  137.9947  152.2282 C.3     1  UNL1        0.2525
     33 O         143.2161  138.4308  153.2593 O.3     1  UNL1       -0.4714
@<TRIPOS>BOND
     1    32    33    1
     2    33    25    1
     3    25    26   ar
     4    26    27   ar
     5    27    28   ar
     6    28     1    1
     7     1     2   am
     8     2     3    2
     9     2     4   am
    10     4     5    1
    11     5     6    1
    12     6     7    1
    13     7    12    1
    14    12    13   ar
    15    13    14   ar
    16    14    15    1
    17    14    16   ar
    18    16    17   ar
    19    17    18   ar
    20    18    19   ar
    21    19    20   ar
    22    20    21   ar
    23    21    22    1
    24     7     8    1
    25     8     9    1
    26     8    10    1
    27    28    29   ar
    28    29    30    1
    29    29    31   ar
    30    31    25   ar
    31    10     4    1
    32    18    12   ar
    33    21    17   ar
    34     1    11    1
    35    15    23    1
    36    15    24    1
@<TRIPOS>MOLECULE
*****
 33 36 0 0 0
SMALL
GASTEIGER

@<TRIPOS>ATOM
      1 N         145.0709  142.6290  157.2483 N.am    1  UNL1       -0.2684
      2 C         144.5232  141.3723  157.8570 C.2     1  UNL1        0.3078
      3 O         144.9125  140.0362  157.2970 O.2     1  UNL1       -0.2522
      4 N         143.5862  141.4515  159.0257 N.am    1  UNL1       -0.2605
      5 C         143.0385  140.1947  159.6344 C.3     1  UNL1        0.1164
      6 C         142.1015  140.2739  160.8030 C.3     1  UNL1        0.1137
      7 N         141.7122  141.6099  161.3629 N.pl3   1  UNL1       -0.2901
      8 C         142.2599  142.8667  160.7542 C.3     1  UNL1        0.0941
      9 C         141.8706  144.2027  161.3141 C.3     1  UNL1        0.0233
     10 C         143.1969  142.7875  159.5855 C.3     1  UNL1        0.1147
     11 H         144.8153  143.5059  157.6157 H       1  UNL1        0.1564
     12 C         140.7752  141.6892  162.5316 C.ar    1  UNL1        0.1554
     13 N         139.3032  141.4849  162.3279 N.ar    1  UNL1       -0.1974
     14 C         138.3662  141.5642  163.4964 C.ar    1  UNL1        0.2162
     15 N         136.8941  141.3598  163.2927 N.pl3   1  UNL1       -0.3274
     16 N         138.9011  141.8478  164.8688 N.ar    1  UNL1       -0.1949
     17 C         140.3731  142.0521  165.0726 C.ar    1  UNL1        0.1685
     18 C         141.3101  141.9729  163.9040 C.ar    1  UNL1        0.1486
     19 N         142.7017  142.2163  164.4082 N.ar    1  UNL1       -0.2194
     20 C         142.6246  142.4461  165.8885 C.ar    1  UNL1        0.1798
     21 N         141.1855  142.3446  166.2991 N.ar    1  UNL1       -0.2923
     22 C         140.6524  142.5071  167.6918 C.3     1  UNL1        0.1335
     23 H         136.5430  141.1736  162.3920 H       1  UNL1        0.1452
     24 H         136.2792  141.4118  164.0598 H       1  UNL1        0.1452
     25 C         147.8819  142.3914  153.7423 C.ar    1  UNL1        0.1385
     26 C         148.4110  142.2503  155.1387 C.ar    1  UNL1        0.0382
     27 C         147.4740  142.3295  156.3074 C.ar    1  UNL1        0.0175
     28 C         146.0079  142.5498  156.0796 C.ar    1  UNL1        0.0478
     29 C         145.4787  142.6909  154.6831 C.ar    1  UNL1       -0.0053
     30 C         144.0126  142.9111  154.4554 C.3     1  UNL1        0.0324
     31 C         146.4157  142.6117  153.5145 C.ar    1  UNL1        0.0339
     32 C         150.1360  143.0283  152.6185 C.3     1  UNL1        0.2525
     33 O         148.8188  142.3122  152.5735 O.3     1  UNL1       -0.4714
@<TRIPOS>BOND
     1    32    33    1
     2    33    25    1
     3    25    26   ar
     4    26    27   ar
     5    27    28   ar
     6    28     1    1
     7     1     2   am
     8     2     3    2
     9     2     4   am
    10     4     5    1
    11     5     6    1
    12     6     7    1
    13     7    12    1
    14    12    13   ar
    15    13    14   ar
    16    14    15    1
    17    14    16   ar
    18    16    17   ar
    19    17    18   ar
    20    18    19   ar
    21    19    20   ar
    22    20    21   ar
    23    21    22    1
    24     7     8    1
    25     8     9    1
    26     8    10    1
    27    28    29   ar
    28    29    30    1
    29    29    31   ar
    30    31    25   ar
    31    10     4    1
    32    18    12   ar
    33    21    17   ar
    34     1    11    1
    35    15    23    1
    36    15    24    1
@<TRIPOS>MOLECULE
*****
 33 36 0 0 0
SMALL
GASTEIGER

@<TRIPOS>ATOM
      1 N         141.3861  141.1797  164.4091 N.am    1  UNL1       -0.2684
      2 C         140.5520  140.0157  163.9626 C.2     1  UNL1        0.3078
      3 O         139.8435  139.1679  164.9772 O.2     1  UNL1       -0.2522
      4 N         140.4264  139.6995  162.5017 N.am    1  UNL1       -0.2605
      5 C         139.5923  138.5355  162.0553 C.3     1  UNL1        0.1164
      6 C         139.4666  138.2193  160.5944 C.3     1  UNL1        0.1137
      7 N         140.1752  139.0672  159.5800 N.pl3   1  UNL1       -0.2901
      8 C         141.0093  140.2312  160.0264 C.3     1  UNL1        0.0941
      9 C         141.7178  141.0790  159.0119 C.3     1  UNL1        0.0233
     10 C         141.1349  140.5474  161.4873 C.3     1  UNL1        0.1147
     11 H         141.8511  141.7361  163.7433 H       1  UNL1        0.1564
     12 C         140.0496  138.7511  158.1190 C.ar    1  UNL1        0.1554
     13 N         138.8569  139.2327  157.3472 N.ar    1  UNL1       -0.1974
     14 C         138.7313  138.9167  155.8864 C.ar    1  UNL1        0.2162
     15 N         137.5386  139.3983  155.1146 N.pl3   1  UNL1       -0.3274
     16 N         139.7983  138.1189  155.1971 N.ar    1  UNL1       -0.1949
     17 C         140.9910  137.6372  155.9688 C.ar    1  UNL1        0.1685
     18 C         141.1166  137.9533  157.4298 C.ar    1  UNL1        0.1486
     19 N         142.3962  137.3485  157.9266 N.ar    1  UNL1       -0.2194
     20 C         143.0614  136.6586  156.7726 C.ar    1  UNL1        0.1798
     21 N         142.1929  136.8370  155.5627 N.ar    1  UNL1       -0.2923
     22 C         142.4766  136.3081  154.1880 C.3     1  UNL1        0.1335
     23 H         136.8383  139.9219  155.5669 H       1  UNL1        0.1452
     24 H         137.4562  139.1909  154.1557 H       1  UNL1        0.1452
     25 C         141.7630  142.1283  168.7918 C.ar    1  UNL1        0.1385
     26 C         142.6570  141.0981  168.1678 C.ar    1  UNL1        0.0382
     27 C         142.5314  140.7819  166.7069 C.ar    1  UNL1        0.0175
     28 C         141.5117  141.4959  165.8700 C.ar    1  UNL1        0.0478
     29 C         140.6177  142.5261  166.4940 C.ar    1  UNL1       -0.0053
     30 C         139.5980  143.2401  165.6570 C.3     1  UNL1        0.0324
     31 C         140.7433  142.8423  167.9549 C.ar    1  UNL1        0.0339
     32 C         140.8980  141.8833  171.2294 C.3     1  UNL1        0.2525
     33 O         141.8885  142.4445  170.2527 O.3     1  UNL1       -0.4714
@<TRIPOS>BOND
     1    32    33    1
     2    33    25    1
     3    25    26   ar
     4    26    27   ar
     5    27    28   ar
     6    28     1    1
     7     1     2   am
     8     2     3    2
     9     2     4   am
    10     4     5    1
    11     5     6    1
    12     6     7    1
    13     7    12    1
    14    12    13   ar
    15    13    14   ar
    16    14    15    1
    17    14    16   ar
    18    16    17   ar
    19    17    18   ar
    20    18    19   ar
    21    19    20   ar
    22    20    21   ar
    23    21    22    1
    24     7     8    1
    25     8     9    1
    26     8    10    1
    27    28    29   ar
    28    29    30    1
    29    29    31   ar
    30    31    25   ar
    31    10     4    1
    32    18    12   ar
    33    21    17   ar
    34     1    11    1
    35    15    23    1
    36    15    24    1
@<TRIPOS>MOLECULE
*****
 33 36 0 0 0
SMALL
GASTEIGER

@<TRIPOS>ATOM
      1 N         142.2543  141.0071  164.9331 N.am    1  UNL1       -0.2684
      2 C         143.3747  141.7715  164.2928 C.2     1  UNL1        0.3078
      3 O         144.3269  142.5596  165.1429 O.2     1  UNL1       -0.2522
      4 N         143.5432  141.7479  162.8025 N.am    1  UNL1       -0.2605
      5 C         144.6638  142.5123  162.1622 C.3     1  UNL1        0.1164
      6 C         144.8323  142.4887  160.6718 C.3     1  UNL1        0.1137
      7 N         143.8802  141.7006  159.8219 N.pl3   1  UNL1       -0.2901
      8 C         142.7596  140.9362  160.4622 C.3     1  UNL1        0.0941
      9 C         141.8076  140.1482  159.6122 C.3     1  UNL1        0.0233
     10 C         142.5911  140.9598  161.9525 C.3     1  UNL1        0.1147
     11 H         141.6294  140.4899  164.3753 H       1  UNL1        0.1564
     12 C         144.0486  141.6769  158.3315 C.ar    1  UNL1        0.1554
     13 N         144.8009  140.5548  157.6795 N.ar    1  UNL1       -0.1974
     14 C         144.9694  140.5311  156.1893 C.ar    1  UNL1        0.2162
     15 N         145.7217  139.4090  155.5372 N.pl3   1  UNL1       -0.3274
     16 N         144.3856  141.6294  155.3509 N.ar    1  UNL1       -0.1949
     17 C         143.6333  142.7514  156.0028 C.ar    1  UNL1        0.1685
     18 C         143.4648  142.7752  157.4932 C.ar    1  UNL1        0.1486
     19 N         142.6791  144.0017  157.8514 N.ar    1  UNL1       -0.2194
     20 C         142.3620  144.7360  156.5824 C.ar    1  UNL1        0.1798
     21 N         142.9517  143.9633  155.4400 N.ar    1  UNL1       -0.2923
     22 C         142.8735  144.3369  153.9893 C.3     1  UNL1        0.1335
     23 H         146.1049  138.6881  156.0875 H       1  UNL1        0.1452
     24 H         145.8323  139.3935  154.5591 H       1  UNL1        0.1452
     25 C         141.7487  141.0780  169.4041 C.ar    1  UNL1        0.1385
     26 C         141.2206  142.2085  168.5716 C.ar    1  UNL1        0.0382
     27 C         141.3891  142.1849  167.0813 C.ar    1  UNL1        0.0175
     28 C         142.0857  141.0308  166.4235 C.ar    1  UNL1        0.0478
     29 C         142.6139  139.9003  167.2560 C.ar    1  UNL1       -0.0053
     30 C         143.3105  138.7462  166.5981 C.3     1  UNL1        0.0324
     31 C         142.4454  139.9239  168.7463 C.ar    1  UNL1        0.0339
     32 C         140.5522  141.9977  171.5189 C.3     1  UNL1        0.2525
     33 O         141.5803  141.1016  170.8945 O.3     1  UNL1       -0.4714
@<TRIPOS>BOND
     1    32    33    1
     2    33    25    1
     3    25    26   ar
     4    26    27   ar
     5    27    28   ar
     6    28     1    1
     7     1     2   am
     8     2     3    2
     9     2     4   am
    10     4     5    1
    11     5     6    1
    12     6     7    1
    13     7    12    1
    14    12    13   ar
    15    13    14   ar
    16    14    15    1
    17    14    16   ar
    18    16    17   ar
    19    17    18   ar
    20    18    19   ar
    21    19    20   ar
    22    20    21   ar
    23    21    22    1
    24     7     8    1
    25     8     9    1
    26     8    10    1
    27    28    29   ar
    28    29    30    1
    29    29    31   ar
    30    31    25   ar
    31    10     4    1
    32    18    12   ar
    33    21    17   ar
    34     1    11    1
    35    15    23    1
    36    15    24    1
@<TRIPOS>MOLECULE
*****
 33 36 0 0 0
SMALL
GASTEIGER

@<TRIPOS>ATOM
      1 N         143.7582  141.3628  160.1584 N.am    1  UNL1       -0.2684
      2 C         143.2583  142.5188  160.9729 C.2     1  UNL1        0.3078
      3 O         142.9081  143.8136  160.3014 O.2     1  UNL1       -0.2522
      4 N         143.1085  142.3801  162.4590 N.am    1  UNL1       -0.2605
      5 C         142.6086  143.5362  163.2735 C.3     1  UNL1        0.1164
      6 C         142.4588  143.3976  164.7596 C.3     1  UNL1        0.1137
      7 N         142.8090  142.1028  165.4310 N.pl3   1  UNL1       -0.2901
      8 C         143.3089  140.9467  164.6165 C.3     1  UNL1        0.0941
      9 C         143.6591  139.6519  165.2880 C.3     1  UNL1        0.0233
     10 C         143.4587  141.0853  163.1304 C.3     1  UNL1        0.1147
     11 H         143.9880  140.5129  160.5991 H       1  UNL1        0.1564
     12 C         142.6592  141.9641  166.9171 C.ar    1  UNL1        0.1554
     13 N         143.7006  142.5365  167.8325 N.ar    1  UNL1       -0.1974
     14 C         143.5510  142.3978  169.3185 C.ar    1  UNL1        0.2162
     15 N         144.5924  142.9701  170.2339 N.pl3   1  UNL1       -0.3274
     16 N         142.3599  141.6867  169.8892 N.ar    1  UNL1       -0.1949
     17 C         141.3185  141.1143  168.9739 C.ar    1  UNL1        0.1685
     18 C         141.4682  141.2530  167.4878 C.ar    1  UNL1        0.1486
     19 N         140.2886  140.5911  166.8393 N.ar    1  UNL1       -0.2194
     20 C         139.4099  140.0434  167.9246 C.ar    1  UNL1        0.1798
     21 N         140.0464  140.3667  169.2438 N.ar    1  UNL1       -0.2923
     22 C         139.5057  140.0058  170.5956 C.3     1  UNL1        0.1335
     23 H         145.3741  143.4369  169.8594 H       1  UNL1        0.1452
     24 H         144.4941  142.8791  171.2093 H       1  UNL1        0.1452
     25 C         144.2076  141.7787  155.7002 C.ar    1  UNL1        0.1385
     26 C         145.2397  142.3666  156.6161 C.ar    1  UNL1        0.0382
     27 C         145.0900  142.2280  158.1022 C.ar    1  UNL1        0.0175
     28 C         143.9080  141.5014  158.6723 C.ar    1  UNL1        0.0478
     29 C         142.8758  140.9135  157.7564 C.ar    1  UNL1       -0.0053
     30 C         141.6939  140.1869  158.3265 C.3     1  UNL1        0.0324
     31 C         143.0256  141.0521  156.2704 C.ar    1  UNL1        0.0339
     32 C         145.6619  142.3733  153.6311 C.3     1  UNL1        0.2525
     33 O         144.3573  141.9173  154.2141 O.3     1  UNL1       -0.4714
@<TRIPOS>BOND
     1    32    33    1
     2    33    25    1
     3    25    26   ar
     4    26    27   ar
     5    27    28   ar
     6    28     1    1
     7     1     2   am
     8     2     3    2
     9     2     4   am
    10     4     5    1
    11     5     6    1
    12     6     7    1
    13     7    12    1
    14    12    13   ar
    15    13    14   ar
    16    14    15    1
    17    14    16   ar
    18    16    17   ar
    19    17    18   ar
    20    18    19   ar
    21    19    20   ar
    22    20    21   ar
    23    21    22    1
    24     7     8    1
    25     8     9    1
    26     8    10    1
    27    28    29   ar
    28    29    30    1
    29    29    31   ar
    30    31    25   ar
    31    10     4    1
    32    18    12   ar
    33    21    17   ar
    34     1    11    1
    35    15    23    1
    36    15    24    1
