@<TRIPOS>MOLECULE
*****
 34 38 0 0 0
SMALL
GASTEIGER

@<TRIPOS>ATOM
      1 C         140.7825  139.9349  163.8553 C.ar    1  UNL1        0.1317
      2 C         141.8721  140.9646  163.8037 C.ar    1  UNL1        0.0346
      3 C         142.6411  141.1798  162.5340 C.ar    1  UNL1        0.0121
      4 C         142.3207  140.3655  161.3158 C.ar    1  UNL1        0.1076
      5 C         141.2312  139.3358  161.3673 C.ar    1  UNL1        0.1080
      6 N         140.4621  139.1205  162.6371 N.ar    1  UNL1       -0.2289
      7 N         136.9372  138.8586  170.2039 N.3     1  UNL1       -0.2680
      8 C         138.0914  139.8162  170.1793 C.3     1  UNL1        0.0724
      9 C         138.8605  140.0314  168.9096 C.3     1  UNL1        0.0175
     10 C         138.4753  139.2891  167.6644 C.3     1  UNL1        0.0060
     11 C         137.3211  138.3315  167.6890 C.3     1  UNL1        0.0175
     12 C         136.5520  138.1162  168.9587 C.3     1  UNL1        0.0724
     13 C         138.0902  138.5468  166.4192 C.3     1  UNL1        0.0216
     14 C         138.8592  138.7620  165.1495 C.3     1  UNL1        0.0922
     15 N         140.0135  139.7196  165.1250 N.pl3   1  UNL1       -0.2932
     16 C         140.3986  140.4620  166.3702 C.3     1  UNL1        0.0922
     17 C         139.6296  140.2467  167.6399 C.3     1  UNL1        0.0216
     18 C         136.1681  138.6433  171.4736 C.3     1  UNL1        0.1145
     19 O         137.2896  136.3428  171.9211 O.co2   1  UNL1       -0.5477
     20 C         136.1391  137.2862  172.1119 C.2     1  UNL1        0.0665
     21 O         134.9596  136.8725  172.9411 O.co2   1  UNL1       -0.5477
     22 C         143.0897  140.5807  160.0461 C.2     1  UNL1        0.3767
     23 N         144.0676  141.6877  159.7844 N.2     1  UNL1       -0.0308
     24 C         144.5982  141.5179  158.3917 C.2     1  UNL1        0.2320
     25 C         145.5892  142.3103  157.5917 C.2     1  UNL1        0.0537
     26 C         145.9302  141.8908  156.1926 C.2     1  UNL1        0.0714
     27 C         145.2803  140.6789  155.5934 C.2     1  UNL1       -0.0133
     28 C         144.2893  139.8865  156.3935 C.3     1  UNL1        0.1037
     29 C         143.9483  140.3061  157.7926 C.2     1  UNL1        0.2178
     30 N         143.0160  139.7269  158.8151 N.2     1  UNL1       -0.0347
     31 C         146.9212  142.6832  155.3925 C.3     1  UNL1        0.4184
     32 F         147.9123  143.4755  154.5924 F       1  UNL1       -0.1659
     33 F         148.0345  142.1535  156.2468 F       1  UNL1       -0.1659
     34 F         145.8080  143.2129  154.5381 F       1  UNL1       -0.1659
@<TRIPOS>UNITY_ATOM_ATTR
19 1
charge -1
@<TRIPOS>BOND
     1    19    20   ar
     2    20    21   ar
     3    20    18    1
     4    18     7    1
     5     7     8    1
     6     8     9    1
     7     9    10    1
     8    10    11    1
     9    11    12    1
    10    10    13    1
    11    13    14    1
    12    14    15    1
    13    15     1    1
    14     1     2   ar
    15     2     3   ar
    16     3     4   ar
    17     4    22    1
    18    22    23    2
    19    23    24    1
    20    24    25    2
    21    25    26    1
    22    26    31    1
    23    31    32    1
    24    31    33    1
    25    31    34    1
    26    26    27    2
    27    27    28    1
    28    28    29    1
    29    29    30    2
    30     4     5   ar
    31     5     6   ar
    32    15    16    1
    33    16    17    1
    34    12     7    1
    35     6     1   ar
    36    17    10    1
    37    30    22    1
    38    29    24    1
@<TRIPOS>MOLECULE
*****
 34 38 0 0 0
SMALL
GASTEIGER

@<TRIPOS>ATOM
      1 C         140.7932  140.0274  163.9537 C.ar    1  UNL1        0.1317
      2 C         141.5801  141.2923  163.7784 C.ar    1  UNL1        0.0346
      3 C         142.3567  141.5236  162.5161 C.ar    1  UNL1        0.0121
      4 C         142.3464  140.4900  161.4292 C.ar    1  UNL1        0.1076
      5 C         141.5595  139.2252  161.6044 C.ar    1  UNL1        0.1080
      6 N         140.7828  138.9938  162.8667 N.ar    1  UNL1       -0.2289
      7 N         136.9101  138.8708  170.2651 N.3     1  UNL1       -0.2680
      8 C         136.5207  138.1585  169.0038 C.3     1  UNL1        0.0724
      9 C         137.2974  138.3898  167.7415 C.3     1  UNL1        0.0175
     10 C         138.4633  139.3334  167.7406 C.3     1  UNL1        0.0060
     11 C         138.8526  140.0458  169.0019 C.3     1  UNL1        0.0175
     12 C         138.0760  139.8145  170.2642 C.3     1  UNL1        0.0724
     13 C         139.6292  140.2771  167.7396 C.3     1  UNL1        0.0216
     14 C         140.4059  140.5084  166.4773 C.3     1  UNL1        0.0922
     15 N         140.0165  139.7961  165.2160 N.pl3   1  UNL1       -0.2932
     16 C         138.8506  138.8524  165.2170 C.3     1  UNL1        0.0922
     17 C         138.0740  138.6211  166.4793 C.3     1  UNL1        0.0216
     18 C         136.1334  138.6395  171.5274 C.3     1  UNL1        0.1145
     19 O         137.2472  136.3277  171.9338 O.co2   1  UNL1       -0.5477
     20 C         136.1054  137.2758  172.1515 C.2     1  UNL1        0.0665
     21 O         134.9354  136.8601  172.9932 O.co2   1  UNL1       -0.5477
     22 C         143.1230  140.7213  160.1669 C.2     1  UNL1        0.3767
     23 N         143.0704  139.8726  158.9312 N.2     1  UNL1       -0.0308
     24 C         144.0035  140.4687  157.9193 C.2     1  UNL1        0.2320
     25 C         144.3614  140.0604  156.5210 C.2     1  UNL1        0.0537
     26 C         145.3486  140.8693  155.7330 C.2     1  UNL1        0.0714
     27 C         145.9779  142.0866  156.3432 C.2     1  UNL1       -0.0133
     28 C         145.6200  142.4949  157.7415 C.3     1  UNL1        0.1037
     29 C         144.6328  141.6859  158.5295 C.2     1  UNL1        0.2178
     30 N         144.0886  141.8420  159.9186 N.2     1  UNL1       -0.0347
     31 C         145.7065  140.4611  154.3347 C.3     1  UNL1        0.4184
     32 F         146.0645  140.0529  152.9364 F       1  UNL1       -0.1659
     33 F         146.2142  141.8456  154.0604 F       1  UNL1       -0.1659
     34 F         145.1989  139.0765  154.6089 F       1  UNL1       -0.1659
@<TRIPOS>UNITY_ATOM_ATTR
19 1
charge -1
@<TRIPOS>BOND
     1    19    20   ar
     2    20    21   ar
     3    20    18    1
     4    18     7    1
     5     7     8    1
     6     8     9    1
     7     9    10    1
     8    10    11    1
     9    11    12    1
    10    10    13    1
    11    13    14    1
    12    14    15    1
    13    15     1    1
    14     1     2   ar
    15     2     3   ar
    16     3     4   ar
    17     4    22    1
    18    22    23    2
    19    23    24    1
    20    24    25    2
    21    25    26    1
    22    26    31    1
    23    31    32    1
    24    31    33    1
    25    31    34    1
    26    26    27    2
    27    27    28    1
    28    28    29    1
    29    29    30    2
    30     4     5   ar
    31     5     6   ar
    32    15    16    1
    33    16    17    1
    34    12     7    1
    35     6     1   ar
    36    17    10    1
    37    30    22    1
    38    29    24    1
@<TRIPOS>MOLECULE
*****
 34 38 0 0 0
SMALL
GASTEIGER

@<TRIPOS>ATOM
      1 C         141.0725  141.5218  155.4463 C.ar    1  UNL1        0.1317
      2 C         142.4960  141.0645  155.5666 C.ar    1  UNL1        0.0346
      3 C         142.8027  139.6082  155.7539 C.ar    1  UNL1        0.0121
      4 C         141.6858  138.6091  155.8210 C.ar    1  UNL1        0.1076
      5 C         140.2623  139.0664  155.7007 C.ar    1  UNL1        0.1080
      6 N         139.9557  140.5227  155.5134 N.ar    1  UNL1       -0.2289
      7 N         139.5390  148.8033  154.5097 N.3     1  UNL1       -0.2680
      8 C         138.8959  148.0394  155.6289 C.3     1  UNL1        0.0724
      9 C         139.2026  146.5831  155.8162 C.3     1  UNL1        0.0175
     10 C         140.1524  145.8907  154.8843 C.3     1  UNL1        0.0060
     11 C         140.7955  146.6547  153.7651 C.3     1  UNL1        0.0175
     12 C         140.4888  148.1110  153.5778 C.3     1  UNL1        0.0724
     13 C         141.1022  145.1984  153.9524 C.3     1  UNL1        0.0216
     14 C         141.4089  143.7420  154.1398 C.3     1  UNL1        0.0922
     15 N         140.7658  142.9781  155.2590 N.pl3   1  UNL1       -0.2932
     16 C         139.8160  143.6704  156.1909 C.3     1  UNL1        0.0922
     17 C         139.5093  145.1267  156.0035 C.3     1  UNL1        0.0216
     18 C         139.2323  150.2597  154.3223 C.3     1  UNL1        0.1145
     19 O         141.3329  151.6660  154.9223 O.co2   1  UNL1       -0.5477
     20 C         139.9061  151.2850  155.1852 C.2     1  UNL1        0.0665
     21 O         139.1530  151.9295  156.3111 O.co2   1  UNL1       -0.5477
     22 C         141.9925  137.1528  156.0083 C.2     1  UNL1        0.3767
     23 N         143.0692  136.5841  156.8842 N.2     1  UNL1       -0.0308
     24 C         143.0185  135.0893  156.7699 C.2     1  UNL1        0.2320
     25 C         143.8381  134.0057  157.4054 C.2     1  UNL1        0.0537
     26 C         143.5497  132.5670  157.0943 C.2     1  UNL1        0.0714
     27 C         142.4416  132.2119  156.1477 C.2     1  UNL1       -0.0133
     28 C         141.6220  133.2955  155.5122 C.3     1  UNL1        0.1037
     29 C         141.9104  134.7342  155.8233 C.2     1  UNL1        0.2178
     30 N         141.2764  136.0095  155.3526 N.2     1  UNL1       -0.0347
     31 C         144.3693  131.4833  157.7299 C.3     1  UNL1        0.4184
     32 F         145.1890  130.3997  158.3654 F       1  UNL1       -0.1659
     33 F         145.4275  132.4878  158.0779 F       1  UNL1       -0.1659
     34 F         143.3112  130.4788  157.3819 F       1  UNL1       -0.1659
@<TRIPOS>UNITY_ATOM_ATTR
19 1
charge -1
@<TRIPOS>BOND
     1    19    20   ar
     2    20    21   ar
     3    20    18    1
     4    18     7    1
     5     7     8    1
     6     8     9    1
     7     9    10    1
     8    10    11    1
     9    11    12    1
    10    10    13    1
    11    13    14    1
    12    14    15    1
    13    15     1    1
    14     1     2   ar
    15     2     3   ar
    16     3     4   ar
    17     4    22    1
    18    22    23    2
    19    23    24    1
    20    24    25    2
    21    25    26    1
    22    26    31    1
    23    31    32    1
    24    31    33    1
    25    31    34    1
    26    26    27    2
    27    27    28    1
    28    28    29    1
    29    29    30    2
    30     4     5   ar
    31     5     6   ar
    32    15    16    1
    33    16    17    1
    34    12     7    1
    35     6     1   ar
    36    17    10    1
    37    30    22    1
    38    29    24    1
@<TRIPOS>MOLECULE
*****
 34 38 0 0 0
SMALL
GASTEIGER

@<TRIPOS>ATOM
      1 C         141.3593  139.8941  155.5211 C.ar    1  UNL1        0.1317
      2 C         141.4010  140.4632  154.1339 C.ar    1  UNL1        0.0346
      3 C         141.1447  141.9248  153.9147 C.ar    1  UNL1        0.0121
      4 C         140.8467  142.8173  155.0827 C.ar    1  UNL1        0.1076
      5 C         140.8049  142.2483  156.4700 C.ar    1  UNL1        0.1080
      6 N         141.0613  140.7867  156.6891 N.ar    1  UNL1       -0.2289
      7 N         142.6409  132.5862  156.6169 N.3     1  UNL1       -0.2680
      8 C         143.3945  133.6078  157.4158 C.3     1  UNL1        0.0724
      9 C         143.1382  135.0694  157.1966 C.3     1  UNL1        0.0175
     10 C         142.1283  135.5094  156.1786 C.3     1  UNL1        0.0060
     11 C         141.3747  134.4877  155.3797 C.3     1  UNL1        0.0175
     12 C         141.6310  133.0261  155.5989 C.3     1  UNL1        0.0724
     13 C         141.1184  135.9493  155.1605 C.3     1  UNL1        0.0216
     14 C         140.8620  137.4109  154.9414 C.3     1  UNL1        0.0922
     15 N         141.6156  138.4326  155.7402 N.pl3   1  UNL1       -0.2932
     16 C         142.6256  137.9926  156.7583 C.3     1  UNL1        0.0922
     17 C         142.8819  136.5310  156.9775 C.3     1  UNL1        0.0216
     18 C         142.8973  131.1246  156.8361 C.3     1  UNL1        0.1145
     19 O         144.9472  130.4227  158.2697 O.co2   1  UNL1       -0.5477
     20 C         144.3052  130.6155  156.9277 C.2     1  UNL1        0.0665
     21 O         145.0713  130.2993  155.6774 O.co2   1  UNL1       -0.5477
     22 C         140.5903  144.2789  154.8636 C.2     1  UNL1        0.3767
     23 N         139.7862  145.1767  155.7566 N.2     1  UNL1       -0.0308
     24 C         139.7920  146.5520  155.1578 C.2     1  UNL1        0.2320
     25 C         139.1662  147.8416  155.5996 C.2     1  UNL1        0.0537
     26 C         139.3480  149.0835  154.7782 C.2     1  UNL1        0.0714
     27 C         140.1558  149.0358  153.5152 C.2     1  UNL1       -0.0133
     28 C         140.7816  147.7461  153.0735 C.3     1  UNL1        0.1037
     29 C         140.5998  146.5043  153.8948 C.2     1  UNL1        0.2178
     30 N         141.0931  145.0994  153.7130 N.2     1  UNL1       -0.0347
     31 C         138.7222  150.3732  155.2199 C.3     1  UNL1        0.4184
     32 F         138.0964  151.6628  155.6616 F       1  UNL1       -0.1659
     33 F         139.0156  150.9752  153.8778 F       1  UNL1       -0.1659
     34 F         138.4288  149.7712  156.5621 F       1  UNL1       -0.1659
@<TRIPOS>UNITY_ATOM_ATTR
19 1
charge -1
@<TRIPOS>BOND
     1    19    20   ar
     2    20    21   ar
     3    20    18    1
     4    18     7    1
     5     7     8    1
     6     8     9    1
     7     9    10    1
     8    10    11    1
     9    11    12    1
    10    10    13    1
    11    13    14    1
    12    14    15    1
    13    15     1    1
    14     1     2   ar
    15     2     3   ar
    16     3     4   ar
    17     4    22    1
    18    22    23    2
    19    23    24    1
    20    24    25    2
    21    25    26    1
    22    26    31    1
    23    31    32    1
    24    31    33    1
    25    31    34    1
    26    26    27    2
    27    27    28    1
    28    28    29    1
    29    29    30    2
    30     4     5   ar
    31     5     6   ar
    32    15    16    1
    33    16    17    1
    34    12     7    1
    35     6     1   ar
    36    17    10    1
    37    30    22    1
    38    29    24    1
@<TRIPOS>MOLECULE
*****
 34 38 0 0 0
SMALL
GASTEIGER

@<TRIPOS>ATOM
      1 C         141.4941  137.1838  157.1395 C.ar    1  UNL1        0.1317
      2 C         142.5842  137.8711  157.9072 C.ar    1  UNL1        0.0346
      3 C         142.2623  139.0556  158.7693 C.ar    1  UNL1        0.0121
      4 C         140.8503  139.5529  158.8638 C.ar    1  UNL1        0.1076
      5 C         139.7602  138.8657  158.0961 C.ar    1  UNL1        0.1080
      6 N         140.0821  137.6811  157.2340 N.ar    1  UNL1       -0.2289
      7 N         143.1035  131.2612  152.8289 N.3     1  UNL1       -0.2680
      8 C         143.6974  131.3731  154.2017 C.3     1  UNL1        0.0724
      9 C         143.3755  132.5577  155.0638 C.3     1  UNL1        0.0175
     10 C         142.4597  133.6302  154.5531 C.3     1  UNL1        0.0060
     11 C         141.8658  133.5183  153.1803 C.3     1  UNL1        0.0175
     12 C         142.1877  132.3337  152.3182 C.3     1  UNL1        0.0724
     13 C         141.5439  134.7028  154.0425 C.3     1  UNL1        0.0216
     14 C         141.2220  135.8873  154.9046 C.3     1  UNL1        0.0922
     15 N         141.8160  135.9993  156.2774 N.pl3   1  UNL1       -0.2932
     16 C         142.7318  134.9267  156.7881 C.3     1  UNL1        0.0922
     17 C         143.0537  133.7422  155.9260 C.3     1  UNL1        0.0216
     18 C         143.4254  130.0766  151.9668 C.3     1  UNL1        0.1145
     19 O         145.5294  128.6702  152.5545 O.co2   1  UNL1       -0.5477
     20 C         144.0404  128.8512  152.5751 C.2     1  UNL1        0.0665
     21 O         143.1666  127.8068  153.2041 O.co2   1  UNL1       -0.5477
     22 C         140.5285  140.7375  159.7259 C.2     1  UNL1        0.3767
     23 N         140.0651  140.6903  161.1518 N.2     1  UNL1       -0.0308
     24 C         139.8637  142.1008  161.6207 C.2     1  UNL1        0.2320
     25 C         139.4155  142.6672  162.9353 C.2     1  UNL1        0.0537
     26 C         139.3062  144.1524  163.1139 C.2     1  UNL1        0.0714
     27 C         139.6451  145.0714  161.9778 C.2     1  UNL1       -0.0133
     28 C         140.0932  144.5051  160.6631 C.3     1  UNL1        0.1037
     29 C         140.2025  143.0198  160.4846 C.2     1  UNL1        0.2178
     30 N         140.6134  142.1772  159.3136 N.2     1  UNL1       -0.0347
     31 C         138.8580  144.7189  164.4286 C.3     1  UNL1        0.4184
     32 F         138.4099  145.2853  165.7432 F       1  UNL1       -0.1659
     33 F         140.2778  145.0705  164.7610 F       1  UNL1       -0.1659
     34 F         137.4383  144.3672  164.0961 F       1  UNL1       -0.1659
@<TRIPOS>UNITY_ATOM_ATTR
19 1
charge -1
@<TRIPOS>BOND
     1    19    20   ar
     2    20    21   ar
     3    20    18    1
     4    18     7    1
     5     7     8    1
     6     8     9    1
     7     9    10    1
     8    10    11    1
     9    11    12    1
    10    10    13    1
    11    13    14    1
    12    14    15    1
    13    15     1    1
    14     1     2   ar
    15     2     3   ar
    16     3     4   ar
    17     4    22    1
    18    22    23    2
    19    23    24    1
    20    24    25    2
    21    25    26    1
    22    26    31    1
    23    31    32    1
    24    31    33    1
    25    31    34    1
    26    26    27    2
    27    27    28    1
    28    28    29    1
    29    29    30    2
    30     4     5   ar
    31     5     6   ar
    32    15    16    1
    33    16    17    1
    34    12     7    1
    35     6     1   ar
    36    17    10    1
    37    30    22    1
    38    29    24    1
@<TRIPOS>MOLECULE
*****
 34 38 0 0 0
SMALL
GASTEIGER

@<TRIPOS>ATOM
      1 C         141.5530  138.4743  160.2906 C.ar    1  UNL1        0.1317
      2 C         141.2580  139.9395  160.4164 C.ar    1  UNL1        0.0346
      3 C         141.2418  140.5879  161.7690 C.ar    1  UNL1        0.0121
      4 C         141.5206  139.7709  162.9957 C.ar    1  UNL1        0.1076
      5 C         141.8156  138.3057  162.8698 C.ar    1  UNL1        0.1080
      6 N         141.8318  137.6573  161.5173 N.ar    1  UNL1       -0.2289
      7 N         141.6341  135.2326  153.5278 N.3     1  UNL1       -0.2680
      8 C         142.7902  135.0427  154.4645 C.3     1  UNL1        0.0724
      9 C         142.7740  135.6910  155.8170 C.3     1  UNL1        0.0175
     10 C         141.6017  136.5293  156.2329 C.3     1  UNL1        0.0060
     11 C         140.4456  136.7192  155.2963 C.3     1  UNL1        0.0175
     12 C         140.4618  136.0709  153.9437 C.3     1  UNL1        0.0724
     13 C         140.4294  137.3675  156.6488 C.3     1  UNL1        0.0216
     14 C         140.4132  138.0159  158.0014 C.3     1  UNL1        0.0922
     15 N         141.5692  137.8259  158.9380 N.pl3   1  UNL1       -0.2932
     16 C         142.7415  136.9877  158.5221 C.3     1  UNL1        0.0922
     17 C         142.7577  136.3394  157.1696 C.3     1  UNL1        0.0216
     18 C         141.6503  134.5843  152.1752 C.3     1  UNL1        0.1145
     19 O         139.8850  132.6894  151.9674 O.co2   1  UNL1       -0.5477
     20 C         141.3178  133.1282  152.0375 C.2     1  UNL1        0.0665
     21 O         142.4179  132.1107  151.9698 O.co2   1  UNL1       -0.5477
     22 C         141.5044  140.4193  164.3483 C.2     1  UNL1        0.3767
     23 N         142.7082  140.7923  165.1617 N.2     1  UNL1       -0.0308
     24 C         142.2293  141.4119  166.4410 C.2     1  UNL1        0.2320
     25 C         142.9652  141.9684  167.6237 C.2     1  UNL1        0.0537
     26 C         142.2012  142.5349  168.7837 C.2     1  UNL1        0.0714
     27 C         140.7014  142.5448  168.7609 C.2     1  UNL1       -0.0133
     28 C         139.9656  141.9884  167.5782 C.3     1  UNL1        0.1037
     29 C         140.7295  141.4219  166.4183 C.2     1  UNL1        0.2178
     30 N         140.2815  140.8084  165.1249 N.2     1  UNL1       -0.0347
     31 C         142.9371  143.0914  169.9665 C.3     1  UNL1        0.4184
     32 F         143.6729  143.6478  171.1492 F       1  UNL1       -0.1659
     33 F         144.0944  142.1831  169.6737 F       1  UNL1       -0.1659
     34 F         141.7798  143.9996  170.2592 F       1  UNL1       -0.1659
@<TRIPOS>UNITY_ATOM_ATTR
19 1
charge -1
@<TRIPOS>BOND
     1    19    20   ar
     2    20    21   ar
     3    20    18    1
     4    18     7    1
     5     7     8    1
     6     8     9    1
     7     9    10    1
     8    10    11    1
     9    11    12    1
    10    10    13    1
    11    13    14    1
    12    14    15    1
    13    15     1    1
    14     1     2   ar
    15     2     3   ar
    16     3     4   ar
    17     4    22    1
    18    22    23    2
    19    23    24    1
    20    24    25    2
    21    25    26    1
    22    26    31    1
    23    31    32    1
    24    31    33    1
    25    31    34    1
    26    26    27    2
    27    27    28    1
    28    28    29    1
    29    29    30    2
    30     4     5   ar
    31     5     6   ar
    32    15    16    1
    33    16    17    1
    34    12     7    1
    35     6     1   ar
    36    17    10    1
    37    30    22    1
    38    29    24    1
@<TRIPOS>MOLECULE
*****
 34 38 0 0 0
SMALL
GASTEIGER

@<TRIPOS>ATOM
      1 C         143.9884  141.4865  160.2516 C.ar    1  UNL1        0.1317
      2 C         144.5357  142.3124  161.3778 C.ar    1  UNL1        0.0346
      3 C         143.8879  142.2605  162.7297 C.ar    1  UNL1        0.0121
      4 C         142.6928  141.3827  162.9555 C.ar    1  UNL1        0.1076
      5 C         142.1454  140.5568  161.8293 C.ar    1  UNL1        0.1080
      6 N         142.7932  140.6087  160.4774 N.ar    1  UNL1       -0.2289
      7 N         147.2274  141.7461  153.4921 N.3     1  UNL1       -0.2680
      8 C         147.6872  142.6707  154.5801 C.3     1  UNL1        0.0724
      9 C         147.0394  142.6187  155.9320 C.3     1  UNL1        0.0175
     10 C         145.9318  141.6423  156.1959 C.3     1  UNL1        0.0060
     11 C         145.4720  140.7178  155.1079 C.3     1  UNL1        0.0175
     12 C         146.1198  140.7697  153.7560 C.3     1  UNL1        0.0724
     13 C         144.8242  140.6659  156.4598 C.3     1  UNL1        0.0216
     14 C         144.1764  140.6139  157.8117 C.3     1  UNL1        0.0922
     15 N         144.6362  141.5385  158.8997 N.pl3   1  UNL1       -0.2932
     16 C         145.7438  142.5149  158.6358 C.3     1  UNL1        0.0922
     17 C         146.3916  142.5668  157.2839 C.3     1  UNL1        0.0216
     18 C         147.8752  141.7981  152.1402 C.3     1  UNL1        0.1145
     19 O         150.0811  143.1602  151.9704 O.co2   1  UNL1       -0.5477
     20 C         149.3702  141.8404  152.0261 C.2     1  UNL1        0.0665
     21 O         150.1544  140.5631  151.9675 O.co2   1  UNL1       -0.5477
     22 C         142.0449  141.3308  164.3074 C.2     1  UNL1        0.3767
     23 N         141.9650  142.4606  165.2907 N.2     1  UNL1       -0.0308
     24 C         141.2340  141.9680  166.5044 C.2     1  UNL1        0.2320
     25 C         140.8589  142.6402  167.7918 C.2     1  UNL1        0.0537
     26 C         140.1120  141.8781  168.8459 C.2     1  UNL1        0.0714
     27 C         139.7401  140.4438  168.6126 C.2     1  UNL1       -0.0133
     28 C         140.1152  139.7716  167.3252 C.3     1  UNL1        0.1037
     29 C         140.8621  140.5337  166.2711 C.2     1  UNL1        0.2178
     30 N         141.3633  140.1399  164.9133 N.2     1  UNL1       -0.0347
     31 C         139.7369  142.5503  170.1334 C.3     1  UNL1        0.4184
     32 F         139.3618  143.2225  171.4208 F       1  UNL1       -0.1659
     33 F         140.8231  143.5627  169.9212 F       1  UNL1       -0.1659
     34 F         138.6507  141.5379  170.3456 F       1  UNL1       -0.1659
@<TRIPOS>UNITY_ATOM_ATTR
19 1
charge -1
@<TRIPOS>BOND
     1    19    20   ar
     2    20    21   ar
     3    20    18    1
     4    18     7    1
     5     7     8    1
     6     8     9    1
     7     9    10    1
     8    10    11    1
     9    11    12    1
    10    10    13    1
    11    13    14    1
    12    14    15    1
    13    15     1    1
    14     1     2   ar
    15     2     3   ar
    16     3     4   ar
    17     4    22    1
    18    22    23    2
    19    23    24    1
    20    24    25    2
    21    25    26    1
    22    26    31    1
    23    31    32    1
    24    31    33    1
    25    31    34    1
    26    26    27    2
    27    27    28    1
    28    28    29    1
    29    29    30    2
    30     4     5   ar
    31     5     6   ar
    32    15    16    1
    33    16    17    1
    34    12     7    1
    35     6     1   ar
    36    17    10    1
    37    30    22    1
    38    29    24    1
@<TRIPOS>MOLECULE
*****
 34 38 0 0 0
SMALL
GASTEIGER

@<TRIPOS>ATOM
      1 C         141.0402  144.0126  160.3728 C.ar    1  UNL1        0.1317
      2 C         140.5505  142.6083  160.5677 C.ar    1  UNL1        0.0346
      3 C         140.5867  141.9838  161.9310 C.ar    1  UNL1        0.0121
      4 C         141.1125  142.7636  163.0995 C.ar    1  UNL1        0.1076
      5 C         141.6022  144.1679  162.9046 C.ar    1  UNL1        0.1080
      6 N         141.5660  144.7925  161.5413 N.ar    1  UNL1       -0.2289
      7 N         140.8594  147.1353  153.5562 N.3     1  UNL1       -0.2680
      8 C         139.8966  147.5872  154.6140 C.3     1  UNL1        0.0724
      9 C         139.9328  146.9627  155.9773 C.3     1  UNL1        0.0175
     10 C         140.9317  145.8862  156.2829 C.3     1  UNL1        0.0060
     11 C         141.8945  145.4343  155.2251 C.3     1  UNL1        0.0175
     12 C         141.8583  146.0589  153.8618 C.3     1  UNL1        0.0724
     13 C         141.9306  144.8098  156.5884 C.3     1  UNL1        0.0216
     14 C         141.9668  144.1853  157.9518 C.3     1  UNL1        0.0922
     15 N         141.0040  144.6372  159.0095 N.pl3   1  UNL1       -0.2932
     16 C         140.0051  145.7136  158.7039 C.3     1  UNL1        0.0922
     17 C         139.9690  146.3381  157.3406 C.3     1  UNL1        0.0216
     18 C         140.8232  147.7598  152.1929 C.3     1  UNL1        0.1145
     19 O         139.7659  150.1226  151.9698 O.co2   1  UNL1       -0.5477
     20 C         140.9796  149.2441  152.0435 C.2     1  UNL1        0.0665
     21 O         142.3497  149.8501  151.9678 O.co2   1  UNL1       -0.5477
     22 C         141.1487  142.1390  164.4628 C.2     1  UNL1        0.3767
     23 N         142.3512  142.0350  165.3533 N.2     1  UNL1       -0.0308
     24 C         141.9344  141.3405  166.6159 C.2     1  UNL1        0.2320
     25 C         142.6958  140.9623  167.8516 C.2     1  UNL1        0.0537
     26 C         141.9970  140.2588  168.9772 C.2     1  UNL1        0.0714
     27 C         140.5368  139.9337  168.8669 C.2     1  UNL1       -0.0133
     28 C         139.7754  140.3120  167.6312 C.3     1  UNL1        0.1037
     29 C         140.4742  141.0154  166.5057 C.2     1  UNL1        0.2178
     30 N         139.9886  141.5089  165.1750 N.2     1  UNL1       -0.0347
     31 C         142.7584  139.8805  170.2130 C.3     1  UNL1        0.4184
     32 F         143.5198  139.5022  171.4488 F       1  UNL1       -0.1659
     33 F         141.8314  138.7213  170.4292 F       1  UNL1       -0.1659
     34 F         143.6855  141.0397  169.9968 F       1  UNL1       -0.1659
@<TRIPOS>UNITY_ATOM_ATTR
19 1
charge -1
@<TRIPOS>BOND
     1    19    20   ar
     2    20    21   ar
     3    20    18    1
     4    18     7    1
     5     7     8    1
     6     8     9    1
     7     9    10    1
     8    10    11    1
     9    11    12    1
    10    10    13    1
    11    13    14    1
    12    14    15    1
    13    15     1    1
    14     1     2   ar
    15     2     3   ar
    16     3     4   ar
    17     4    22    1
    18    22    23    2
    19    23    24    1
    20    24    25    2
    21    25    26    1
    22    26    31    1
    23    31    32    1
    24    31    33    1
    25    31    34    1
    26    26    27    2
    27    27    28    1
    28    28    29    1
    29    29    30    2
    30     4     5   ar
    31     5     6   ar
    32    15    16    1
    33    16    17    1
    34    12     7    1
    35     6     1   ar
    36    17    10    1
    37    30    22    1
    38    29    24    1
@<TRIPOS>MOLECULE
*****
 34 38 0 0 0
SMALL
GASTEIGER

@<TRIPOS>ATOM
      1 C         141.2757  143.8788  160.4496 C.ar    1  UNL1        0.1317
      2 C         142.6134  143.5530  161.0448 C.ar    1  UNL1        0.0346
      3 C         142.6970  142.9366  162.4097 C.ar    1  UNL1        0.0121
      4 C         141.4429  142.6460  163.1795 C.ar    1  UNL1        0.1076
      5 C         140.1052  142.9718  162.5843 C.ar    1  UNL1        0.1080
      6 N         140.0216  143.5882  161.2194 N.ar    1  UNL1       -0.2289
      7 N         140.8577  146.9609  153.6249 N.3     1  UNL1       -0.2680
      8 C         141.8689  145.8884  153.9029 C.3     1  UNL1        0.0724
      9 C         141.9525  145.2720  155.2678 C.3     1  UNL1        0.0175
     10 C         141.0249  145.7281  156.3548 C.3     1  UNL1        0.0060
     11 C         140.0138  146.8005  156.0769 C.3     1  UNL1        0.0175
     12 C         139.9302  147.4170  154.7119 C.3     1  UNL1        0.0724
     13 C         140.0974  146.1841  157.4418 C.3     1  UNL1        0.0216
     14 C         140.1810  145.5677  158.8067 C.3     1  UNL1        0.0922
     15 N         141.1921  144.4952  159.0847 N.pl3   1  UNL1       -0.2932
     16 C         142.1197  144.0392  157.9977 C.3     1  UNL1        0.0922
     17 C         142.0361  144.6556  156.6328 C.3     1  UNL1        0.0216
     18 C         140.7741  147.5773  152.2600 C.3     1  UNL1        0.1145
     19 O         139.9203  150.0182  152.0090 O.co2   1  UNL1       -0.5477
     20 C         141.0550  149.0396  152.0790 C.2     1  UNL1        0.0665
     21 O         142.4705  149.5233  151.9679 O.co2   1  UNL1       -0.5477
     22 C         141.5265  142.0296  164.5444 C.2     1  UNL1        0.3767
     23 N         140.7682  142.4733  165.7602 N.2     1  UNL1       -0.0308
     24 C         141.1561  141.5791  166.9004 C.2     1  UNL1        0.2320
     25 C         140.7295  141.5435  168.3380 C.2     1  UNL1        0.0537
     26 C         141.3009  140.5115  169.2645 C.2     1  UNL1        0.0714
     27 C         142.2990  139.5152  168.7534 C.2     1  UNL1       -0.0133
     28 C         142.7256  139.5509  167.3158 C.3     1  UNL1        0.1037
     29 C         142.1542  140.5828  166.3893 C.2     1  UNL1        0.2178
     30 N         142.3831  140.8612  164.9333 N.2     1  UNL1       -0.0347
     31 C         140.8742  140.4758  170.7021 C.3     1  UNL1        0.4184
     32 F         140.4477  140.4401  172.1397 F       1  UNL1       -0.1659
     33 F         142.3115  140.5137  171.1295 F       1  UNL1       -0.1659
     34 F         139.4370  140.4379  170.2747 F       1  UNL1       -0.1659
@<TRIPOS>UNITY_ATOM_ATTR
19 1
charge -1
@<TRIPOS>BOND
     1    19    20   ar
     2    20    21   ar
     3    20    18    1
     4    18     7    1
     5     7     8    1
     6     8     9    1
     7     9    10    1
     8    10    11    1
     9    11    12    1
    10    10    13    1
    11    13    14    1
    12    14    15    1
    13    15     1    1
    14     1     2   ar
    15     2     3   ar
    16     3     4   ar
    17     4    22    1
    18    22    23    2
    19    23    24    1
    20    24    25    2
    21    25    26    1
    22    26    31    1
    23    31    32    1
    24    31    33    1
    25    31    34    1
    26    26    27    2
    27    27    28    1
    28    28    29    1
    29    29    30    2
    30     4     5   ar
    31     5     6   ar
    32    15    16    1
    33    16    17    1
    34    12     7    1
    35     6     1   ar
    36    17    10    1
    37    30    22    1
    38    29    24    1
