@<TRIPOS>MOLECULE
*****
 39 41 0 0 0
SMALL
GASTEIGER

@<TRIPOS>ATOM
      1 C         139.3962  139.4911  160.8037 C.ar    1  UNL1        0.0597
      2 C         139.2958  138.6327  162.0296 C.ar    1  UNL1        0.0422
      3 C         138.6114  139.1559  163.2575 C.ar    1  UNL1        0.1486
      4 C         138.0274  140.5376  163.2595 C.ar    1  UNL1        0.0743
      5 C         138.1278  141.3960  162.0335 C.ar    1  UNL1        0.1416
      6 C         138.8123  140.8728  160.8056 C.ar    1  UNL1        0.0416
      7 N         141.5743  139.0432  159.4600 N.am    1  UNL1       -0.2644
      8 C         140.0807  138.9679  159.5757 C.2     1  UNL1        0.2508
      9 O         139.2714  138.3695  158.4635 O.2     1  UNL1       -0.2698
     10 H         142.1054  139.4360  160.1900 H       1  UNL1        0.1566
     11 N         143.2317  137.0138  156.5964 N.ar    1  UNL1       -0.2357
     12 C         143.3922  138.4160  156.0883 C.ar    1  UNL1        0.0988
     13 C         142.7908  139.3470  157.0993 C.ar    1  UNL1        0.0565
     14 C         142.2587  138.5200  158.2320 C.ar    1  UNL1        0.1557
     15 N         142.5312  137.0781  157.9212 N.ar    1  UNL1       -0.1534
     16 C         143.6911  135.7664  155.9016 C.3     1  UNL1        0.2423
     17 P         142.9648  134.4729  156.1243 P.3     1  UNL1        0.3677
     18 O         142.2387  133.1795  156.3470 O.2     1  UNL1       -0.2557
     19 O         141.9004  134.9044  155.1595 O.3     1  UNL1       -0.2928
     20 C         141.3336  135.7595  152.7726 C.3     1  UNL1        0.0352
     21 C         142.1899  134.9357  153.6880 C.3     1  UNL1        0.1515
     22 O         144.0293  134.0415  157.0891 O.3     1  UNL1       -0.2928
     23 C         144.5018  132.6178  157.0972 C.3     1  UNL1        0.1515
     24 C         145.5139  132.1692  158.1093 C.3     1  UNL1        0.0352
     25 O         138.5109  138.2975  164.4835 O.3     1  UNL1       -0.4502
     26 C         138.9483  138.8354  165.8137 C.ar    1  UNL1        0.1835
     27 C         140.3275  139.4023  165.9766 C.ar    1  UNL1        0.1408
     28 N         140.7649  139.9402  167.3068 N.ar    1  UNL1       -0.2062
     29 C         139.8231  139.9114  168.4739 C.ar    1  UNL1        0.2725
     30 N         138.4439  139.3446  168.3109 N.ar    1  UNL1       -0.2062
     31 C         138.0065  138.8066  166.9808 C.ar    1  UNL1        0.1408
     32 S         140.2605  140.4494  169.8041 S.O2    1  UNL1        0.0441
     33 C         140.6978  140.9873  171.1342 C.3     1  UNL1        0.1853
     34 O         141.5328  140.9467  169.1845 O.2     1  UNL1       -0.1656
     35 O         138.9881  139.9521  170.4236 O.2     1  UNL1       -0.1656
     36 O         137.5439  142.7777  162.0355 O.3     1  UNL1       -0.4791
     37 C         138.1537  143.8484  162.8908 C.3     1  UNL1        0.1661
     38 C         137.7214  144.0046  164.3187 C.3     1  UNL1        0.0472
     39 C         139.1957  144.7630  162.3183 C.3     1  UNL1        0.0472
@<TRIPOS>BOND
     1    20    21    1
     2    21    19    1
     3    19    17    1
     4    17    18    2
     5    17    16    1
     6    16    11    1
     7    11    12   ar
     8    12    13   ar
     9    13    14   ar
    10    14     7    1
    11     7     8   am
    12     8     9    2
    13     8     1    1
    14     1     2   ar
    15     2     3   ar
    16     3    25    1
    17    25    26    1
    18    26    27   ar
    19    27    28   ar
    20    28    29   ar
    21    29    32    1
    22    32    33    1
    23    32    34    2
    24    32    35    2
    25    29    30   ar
    26    30    31   ar
    27     3     4   ar
    28     4     5   ar
    29     5    36    1
    30    36    37    1
    31    37    38    1
    32    37    39    1
    33     5     6   ar
    34    14    15   ar
    35    17    22    1
    36    22    23    1
    37    23    24    1
    38    15    11   ar
    39     6     1   ar
    40    31    26   ar
    41     7    10    1
@<TRIPOS>MOLECULE
*****
 39 41 0 0 0
SMALL
GASTEIGER

@<TRIPOS>ATOM
      1 C         139.4437  139.4241  160.6966 C.ar    1  UNL1        0.0597
      2 C         139.3421  138.5687  161.9245 C.ar    1  UNL1        0.0422
      3 C         138.6563  139.0948  163.1503 C.ar    1  UNL1        0.1486
      4 C         138.0720  140.4763  163.1482 C.ar    1  UNL1        0.0743
      5 C         138.1736  141.3317  161.9203 C.ar    1  UNL1        0.1416
      6 C         138.8595  140.8056  160.6944 C.ar    1  UNL1        0.0416
      7 N         141.6262  138.8051  159.4301 N.am    1  UNL1       -0.2644
      8 C         140.1297  138.8980  159.4706 C.2     1  UNL1        0.2508
      9 O         139.3190  138.4647  158.2853 O.2     1  UNL1       -0.2698
     10 H         142.1583  139.0895  160.2081 H       1  UNL1        0.1566
     11 N         143.2297  136.7672  156.5420 N.ar    1  UNL1       -0.2357
     12 C         143.5056  138.1718  156.0936 C.ar    1  UNL1        0.0988
     13 C         142.9385  139.1062  157.1210 C.ar    1  UNL1        0.0565
     14 C         142.3121  138.2790  158.2042 C.ar    1  UNL1        0.1557
     15 N         142.4921  136.8335  157.8464 N.ar    1  UNL1       -0.1534
     16 C         143.6224  135.5161  155.8138 C.3     1  UNL1        0.2423
     17 P         142.9306  134.2210  156.1208 P.3     1  UNL1        0.3677
     18 O         142.2388  132.9260  156.4278 O.2     1  UNL1       -0.2557
     19 O         144.1131  133.7817  156.9324 O.3     1  UNL1       -0.2928
     20 C         145.2559  131.6954  157.9770 C.3     1  UNL1        0.0352
     21 C         144.6389  132.3835  156.7956 C.3     1  UNL1        0.1515
     22 O         141.7481  134.6604  155.3091 O.3     1  UNL1       -0.2928
     23 C         141.8830  134.8455  153.8267 C.3     1  UNL1        0.1515
     24 C         141.8379  133.6551  152.9151 C.3     1  UNL1        0.0352
     25 O         138.5546  138.2393  164.3784 O.3     1  UNL1       -0.4502
     26 C         138.9655  138.7898  165.7119 C.ar    1  UNL1        0.1835
     27 C         138.0137  138.7381  166.8701 C.ar    1  UNL1        0.1408
     28 N         138.4246  139.2885  168.2036 N.ar    1  UNL1       -0.2062
     29 C         139.7872  139.8906  168.3789 C.ar    1  UNL1        0.2725
     30 N         140.7390  139.9423  167.2207 N.ar    1  UNL1       -0.2062
     31 C         140.3281  139.3919  165.8872 C.ar    1  UNL1        0.1408
     32 S         140.1981  140.4410  169.7124 S.O2    1  UNL1        0.0441
     33 C         140.6090  140.9915  171.0459 C.3     1  UNL1        0.1853
     34 O         138.8922  139.9937  170.2994 O.2     1  UNL1       -0.1656
     35 O         141.5040  140.8884  169.1254 O.2     1  UNL1       -0.1656
     36 O         137.5893  142.7132  161.9182 O.3     1  UNL1       -0.4791
     37 C         138.2165  143.7941  162.7477 C.3     1  UNL1        0.1661
     38 C         137.7417  144.0341  164.1502 C.3     1  UNL1        0.0472
     39 C         139.3187  144.6350  162.1747 C.3     1  UNL1        0.0472
@<TRIPOS>BOND
     1    20    21    1
     2    21    19    1
     3    19    17    1
     4    17    18    2
     5    17    16    1
     6    16    11    1
     7    11    12   ar
     8    12    13   ar
     9    13    14   ar
    10    14     7    1
    11     7     8   am
    12     8     9    2
    13     8     1    1
    14     1     2   ar
    15     2     3   ar
    16     3    25    1
    17    25    26    1
    18    26    27   ar
    19    27    28   ar
    20    28    29   ar
    21    29    32    1
    22    32    33    1
    23    32    34    2
    24    32    35    2
    25    29    30   ar
    26    30    31   ar
    27     3     4   ar
    28     4     5   ar
    29     5    36    1
    30    36    37    1
    31    37    38    1
    32    37    39    1
    33     5     6   ar
    34    14    15   ar
    35    17    22    1
    36    22    23    1
    37    23    24    1
    38    15    11   ar
    39     6     1   ar
    40    31    26   ar
    41     7    10    1
@<TRIPOS>MOLECULE
*****
 39 41 0 0 0
SMALL
GASTEIGER

@<TRIPOS>ATOM
      1 C         138.3632  140.4565  161.1787 C.ar    1  UNL1        0.0597
      2 C         138.3899  139.4706  162.3088 C.ar    1  UNL1        0.0422
      3 C         138.1413  139.9333  163.7138 C.ar    1  UNL1        0.1486
      4 C         137.8659  141.3819  163.9887 C.ar    1  UNL1        0.0743
      5 C         137.8392  142.3679  162.8586 C.ar    1  UNL1        0.1416
      6 C         138.0878  141.9052  161.4536 C.ar    1  UNL1        0.0416
      7 N         139.9821  139.5410  159.3646 N.am    1  UNL1       -0.2644
      8 C         138.6119  139.9938  159.7736 C.2     1  UNL1        0.2508
      9 O         137.4903  139.9840  158.7777 O.2     1  UNL1       -0.2698
     10 H         140.7183  139.5475  160.0182 H       1  UNL1        0.1566
     11 N         140.8765  137.7145  156.0586 N.ar    1  UNL1       -0.2357
     12 C         140.3503  139.0184  155.5361 C.ar    1  UNL1        0.0988
     13 C         139.9511  139.8613  156.7110 C.ar    1  UNL1        0.0565
     14 C         140.2308  139.0783  157.9595 C.ar    1  UNL1        0.1557
     15 N         140.8027  137.7516  157.5563 N.ar    1  UNL1       -0.1534
     16 C         141.3870  136.5739  155.2290 C.3     1  UNL1        0.2423
     17 P         142.2440  135.5146  155.8565 P.3     1  UNL1        0.3677
     18 O         143.1008  134.4554  156.4840 O.2     1  UNL1       -0.2557
     19 O         143.2474  136.5584  156.2484 O.3     1  UNL1       -0.2928
     20 C         144.7930  138.3510  155.1771 C.3     1  UNL1        0.0352
     21 C         144.3582  136.9214  155.3079 C.3     1  UNL1        0.1515
     22 O         141.2405  134.4708  155.4647 O.3     1  UNL1       -0.2928
     23 C         141.5997  133.0168  155.5468 C.3     1  UNL1        0.1515
     24 C         140.9545  132.0311  154.6183 C.3     1  UNL1        0.0352
     25 O         138.1680  138.9473  164.8440 O.3     1  UNL1       -0.4502
     26 C         138.7937  139.3248  166.1539 C.ar    1  UNL1        0.1835
     27 C         140.1749  139.9093  166.1845 C.ar    1  UNL1        0.1408
     28 N         140.8006  140.2868  167.4945 N.ar    1  UNL1       -0.2062
     29 C         140.0452  140.0798  168.7738 C.ar    1  UNL1        0.2725
     30 N         138.6641  139.4953  168.7431 N.ar    1  UNL1       -0.2062
     31 C         138.0384  139.1178  167.4332 C.ar    1  UNL1        0.1408
     32 S         140.6709  140.4573  170.0838 S.O2    1  UNL1        0.0441
     33 C         141.2967  140.8348  171.3937 C.3     1  UNL1        0.1853
     34 O         141.8249  141.0780  169.3536 O.2     1  UNL1       -0.1656
     35 O         139.5169  139.8366  170.8139 O.2     1  UNL1       -0.1656
     36 O         137.5638  143.8165  163.1335 O.3     1  UNL1       -0.4791
     37 C         138.5982  144.6598  163.8182 C.3     1  UNL1        0.1661
     38 C         138.5450  144.8520  165.3049 C.3     1  UNL1        0.0472
     39 C         139.6858  145.3110  163.0162 C.3     1  UNL1        0.0472
@<TRIPOS>BOND
     1    20    21    1
     2    21    19    1
     3    19    17    1
     4    17    18    2
     5    17    16    1
     6    16    11    1
     7    11    12   ar
     8    12    13   ar
     9    13    14   ar
    10    14     7    1
    11     7     8   am
    12     8     9    2
    13     8     1    1
    14     1     2   ar
    15     2     3   ar
    16     3    25    1
    17    25    26    1
    18    26    27   ar
    19    27    28   ar
    20    28    29   ar
    21    29    32    1
    22    32    33    1
    23    32    34    2
    24    32    35    2
    25    29    30   ar
    26    30    31   ar
    27     3     4   ar
    28     4     5   ar
    29     5    36    1
    30    36    37    1
    31    37    38    1
    32    37    39    1
    33     5     6   ar
    34    14    15   ar
    35    17    22    1
    36    22    23    1
    37    23    24    1
    38    15    11   ar
    39     6     1   ar
    40    31    26   ar
    41     7    10    1
@<TRIPOS>MOLECULE
*****
 39 41 0 0 0
SMALL
GASTEIGER

@<TRIPOS>ATOM
      1 C         138.8682  139.9444  160.8353 C.ar    1  UNL1        0.0597
      2 C         138.9271  138.9902  161.9911 C.ar    1  UNL1        0.0422
      3 C         138.4433  139.4203  163.3441 C.ar    1  UNL1        0.1486
      4 C         137.9007  140.8047  163.5415 C.ar    1  UNL1        0.0743
      5 C         137.8418  141.7590  162.3857 C.ar    1  UNL1        0.1416
      6 C         138.3256  141.3288  161.0326 C.ar    1  UNL1        0.0416
      7 N         139.5101  140.5257  158.3858 N.am    1  UNL1       -0.2644
      8 C         139.3521  139.5143  159.4821 C.2     1  UNL1        0.2508
      9 O         139.6777  138.0728  159.2254 O.2     1  UNL1       -0.2698
     10 H         139.2964  141.4718  158.5543 H       1  UNL1        0.1566
     11 N         141.4482  139.4956  155.1845 N.ar    1  UNL1       -0.2357
     12 C         140.0285  139.3719  154.7162 C.ar    1  UNL1        0.0988
     13 C         139.1297  139.7428  155.8584 C.ar    1  UNL1        0.0565
     14 C         139.9940  140.0956  157.0326 C.ar    1  UNL1        0.1557
     15 N         141.4268  139.9428  156.6161 N.ar    1  UNL1       -0.1534
     16 C         142.6740  139.2203  154.3650 C.3     1  UNL1        0.2423
     17 P         143.9317  138.7479  155.0322 P.3     1  UNL1        0.3677
     18 O         145.1895  138.2757  155.6992 O.2     1  UNL1       -0.2557
     19 O         143.3891  137.3500  155.0657 O.3     1  UNL1       -0.2928
     20 C         143.6691  134.8688  155.7833 C.3     1  UNL1        0.0352
     21 C         144.2679  136.2146  155.4999 C.3     1  UNL1        0.1515
     22 O         144.4744  140.1460  154.9986 O.3     1  UNL1       -0.2928
     23 C         145.2635  140.6723  156.1607 C.3     1  UNL1        0.1515
     24 C         146.4982  141.4895  155.9203 C.3     1  UNL1        0.0352
     25 O         138.5022  138.4660  164.5000 O.3     1  UNL1       -0.4502
     26 C         138.9546  138.9465  165.8470 C.ar    1  UNL1        0.1835
     27 C         138.0261  138.8672  167.0224 C.ar    1  UNL1        0.1408
     28 N         138.4785  139.3477  168.3694 N.ar    1  UNL1       -0.2062
     29 C         139.8596  139.9075  168.5410 C.ar    1  UNL1        0.2725
     30 N         140.7881  139.9869  167.3656 N.ar    1  UNL1       -0.2062
     31 C         140.3356  139.5063  166.0186 C.ar    1  UNL1        0.1408
     32 S         140.3121  140.3881  169.8879 S.O2    1  UNL1        0.0441
     33 C         140.7645  140.8686  171.2349 C.3     1  UNL1        0.1853
     34 O         141.6191  140.8225  169.2939 O.2     1  UNL1       -0.1656
     35 O         139.0050  139.9536  170.4820 O.2     1  UNL1       -0.1656
     36 O         137.2991  143.1434  162.5830 O.3     1  UNL1       -0.4791
     37 C         138.1193  144.1755  163.2984 C.3     1  UNL1        0.1661
     38 C         137.9948  144.3342  164.7848 C.3     1  UNL1        0.0472
     39 C         139.0641  145.0491  162.5274 C.3     1  UNL1        0.0472
@<TRIPOS>BOND
     1    20    21    1
     2    21    19    1
     3    19    17    1
     4    17    18    2
     5    17    16    1
     6    16    11    1
     7    11    12   ar
     8    12    13   ar
     9    13    14   ar
    10    14     7    1
    11     7     8   am
    12     8     9    2
    13     8     1    1
    14     1     2   ar
    15     2     3   ar
    16     3    25    1
    17    25    26    1
    18    26    27   ar
    19    27    28   ar
    20    28    29   ar
    21    29    32    1
    22    32    33    1
    23    32    34    2
    24    32    35    2
    25    29    30   ar
    26    30    31   ar
    27     3     4   ar
    28     4     5   ar
    29     5    36    1
    30    36    37    1
    31    37    38    1
    32    37    39    1
    33     5     6   ar
    34    14    15   ar
    35    17    22    1
    36    22    23    1
    37    23    24    1
    38    15    11   ar
    39     6     1   ar
    40    31    26   ar
    41     7    10    1
@<TRIPOS>MOLECULE
*****
 39 41 0 0 0
SMALL
GASTEIGER

@<TRIPOS>ATOM
      1 C         138.3239  140.4854  161.1100 C.ar    1  UNL1        0.0597
      2 C         138.3921  139.5066  162.2444 C.ar    1  UNL1        0.0422
      3 C         138.1902  139.9772  163.6543 C.ar    1  UNL1        0.1486
      4 C         137.9202  141.4268  163.9296 C.ar    1  UNL1        0.0743
      5 C         137.8520  142.4057  162.7952 C.ar    1  UNL1        0.1416
      6 C         138.0538  141.9350  161.3853 C.ar    1  UNL1        0.0416
      7 N         139.8725  139.5234  159.2589 N.am    1  UNL1       -0.2644
      8 C         138.5257  140.0148  159.7000 C.2     1  UNL1        0.2508
      9 O         137.3807  140.0356  158.7313 O.2     1  UNL1       -0.2698
     10 H         140.6240  139.5097  159.8948 H       1  UNL1        0.1566
     11 N         140.6602  137.6796  155.9355 N.ar    1  UNL1       -0.2357
     12 C         140.1096  138.9775  155.4234 C.ar    1  UNL1        0.0988
     13 C         139.7475  139.8262  156.6061 C.ar    1  UNL1        0.0565
     14 C         140.0743  139.0527  157.8490 C.ar    1  UNL1        0.1557
     15 N         140.6384  137.7261  157.4346 N.ar    1  UNL1       -0.1534
     16 C         141.1471  136.5360  155.0959 C.3     1  UNL1        0.2423
     17 P         142.5273  135.9868  155.3042 P.3     1  UNL1        0.3677
     18 O         143.9076  135.4378  155.5125 O.2     1  UNL1       -0.2557
     19 O         141.9438  134.7644  155.9485 O.3     1  UNL1       -0.2928
     20 C         141.7130  132.2203  155.4752 C.3     1  UNL1        0.0352
     21 C         141.4253  133.6432  155.0976 C.3     1  UNL1        0.1515
     22 O         143.1108  137.2094  154.6598 O.3     1  UNL1       -0.2928
     23 C         144.2334  137.9462  155.3284 C.3     1  UNL1        0.1515
     24 C         144.9630  139.0300  154.5915 C.3     1  UNL1        0.0352
     25 O         138.2585  138.9983  164.7888 O.3     1  UNL1       -0.4502
     26 C         139.1862  139.2486  165.9406 C.ar    1  UNL1        0.1835
     27 C         140.6672  139.3119  165.7107 C.ar    1  UNL1        0.1408
     28 N         141.5949  139.5622  166.8625 N.ar    1  UNL1       -0.2062
     29 C         141.0417  139.7493  168.2442 C.ar    1  UNL1        0.2725
     30 N         139.5608  139.6861  168.4741 N.ar    1  UNL1       -0.2062
     31 C         138.6330  139.4357  167.3223 C.ar    1  UNL1        0.1408
     32 S         141.9694  139.9997  169.3960 S.O2    1  UNL1        0.0441
     33 C         142.8971  140.2500  170.5478 C.3     1  UNL1        0.1853
     34 O         142.9779  139.0723  168.7853 O.2     1  UNL1       -0.1656
     35 O         140.9610  140.9271  170.0067 O.2     1  UNL1       -0.1656
     36 O         137.5820  143.8553  163.0706 O.3     1  UNL1       -0.4791
     37 C         138.6513  144.7156  163.6757 C.3     1  UNL1        0.1661
     38 C         139.6610  145.3886  162.7938 C.3     1  UNL1        0.0472
     39 C         138.7111  144.9030  165.1628 C.3     1  UNL1        0.0472
@<TRIPOS>BOND
     1    20    21    1
     2    21    19    1
     3    19    17    1
     4    17    18    2
     5    17    16    1
     6    16    11    1
     7    11    12   ar
     8    12    13   ar
     9    13    14   ar
    10    14     7    1
    11     7     8   am
    12     8     9    2
    13     8     1    1
    14     1     2   ar
    15     2     3   ar
    16     3    25    1
    17    25    26    1
    18    26    27   ar
    19    27    28   ar
    20    28    29   ar
    21    29    32    1
    22    32    33    1
    23    32    34    2
    24    32    35    2
    25    29    30   ar
    26    30    31   ar
    27     3     4   ar
    28     4     5   ar
    29     5    36    1
    30    36    37    1
    31    37    38    1
    32    37    39    1
    33     5     6   ar
    34    14    15   ar
    35    17    22    1
    36    22    23    1
    37    23    24    1
    38    15    11   ar
    39     6     1   ar
    40    31    26   ar
    41     7    10    1
@<TRIPOS>MOLECULE
*****
 39 41 0 0 0
SMALL
GASTEIGER

@<TRIPOS>ATOM
      1 C         139.8575  145.1603  157.5893 C.ar    1  UNL1        0.0597
      2 C         139.4490  143.8914  156.9018 C.ar    1  UNL1        0.0422
      3 C         138.7830  143.9469  155.5589 C.ar    1  UNL1        0.1486
      4 C         138.5256  145.2714  154.9035 C.ar    1  UNL1        0.0743
      5 C         138.9342  146.5403  155.5911 C.ar    1  UNL1        0.1416
      6 C         139.6001  146.4848  156.9339 C.ar    1  UNL1        0.0416
      7 N         139.7497  144.6528  160.1351 N.am    1  UNL1       -0.2644
      8 C         140.5235  145.1049  158.9322 C.2     1  UNL1        0.2508
      9 O         141.9633  145.5015  159.0723 O.2     1  UNL1       -0.2698
     10 H         138.8047  144.3925  160.0431 H       1  UNL1        0.1566
     11 N         141.6549  143.8062  163.4090 N.ar    1  UNL1       -0.2357
     12 C         141.2261  145.2179  163.6800 C.ar    1  UNL1        0.0988
     13 C         140.4601  145.7068  162.4865 C.ar    1  UNL1        0.0565
     14 C         140.4157  144.5973  161.4780 C.ar    1  UNL1        0.1557
     15 N         141.1541  143.4228  162.0481 N.ar    1  UNL1       -0.1534
     16 C         142.4458  142.9317  164.3362 C.3     1  UNL1        0.2423
     17 P         141.9466  141.5600  164.6816 P.3     1  UNL1        0.3677
     18 O         141.4475  140.1883  165.0269 O.2     1  UNL1       -0.2557
     19 O         140.8612  142.1662  165.5208 O.3     1  UNL1       -0.2928
     20 C         138.4594  142.6180  164.6393 C.3     1  UNL1        0.0352
     21 C         139.4390  141.7246  165.3408 C.3     1  UNL1        0.1515
     22 O         143.0321  140.9538  163.8423 O.3     1  UNL1       -0.2928
     23 C         143.5509  139.5833  164.1627 C.3     1  UNL1        0.1515
     24 C         145.0100  139.3809  164.4454 C.3     1  UNL1        0.0352
     25 O         138.3744  142.6779  154.8713 O.3     1  UNL1       -0.4502
     26 C         137.0838  142.0077  155.2389 C.ar    1  UNL1        0.1835
     27 C         137.0224  141.1026  156.4336 C.ar    1  UNL1        0.1408
     28 N         135.7317  140.4325  156.8012 N.ar    1  UNL1       -0.2062
     29 C         134.5025  140.6674  155.9742 C.ar    1  UNL1        0.2725
     30 N         134.5639  141.5725  154.7796 N.ar    1  UNL1       -0.2062
     31 C         135.8546  142.2426  154.4120 C.ar    1  UNL1        0.1408
     32 S         133.2119  139.9973  156.3418 S.O2    1  UNL1        0.0441
     33 C         131.9212  139.3271  156.7094 C.3     1  UNL1        0.1853
     34 O         132.4576  141.2310  155.9429 O.2     1  UNL1       -0.1656
     35 O         133.9661  138.7635  156.7407 O.2     1  UNL1       -0.1656
     36 O         138.6768  147.8648  154.9357 O.3     1  UNL1       -0.4791
     37 C         139.7711  148.5484  154.1707 C.3     1  UNL1        0.1661
     38 C         139.9138  150.0401  154.2372 C.3     1  UNL1        0.0472
     39 C         140.7227  147.7402  153.3392 C.3     1  UNL1        0.0472
@<TRIPOS>BOND
     1    20    21    1
     2    21    19    1
     3    19    17    1
     4    17    18    2
     5    17    16    1
     6    16    11    1
     7    11    12   ar
     8    12    13   ar
     9    13    14   ar
    10    14     7    1
    11     7     8   am
    12     8     9    2
    13     8     1    1
    14     1     2   ar
    15     2     3   ar
    16     3    25    1
    17    25    26    1
    18    26    27   ar
    19    27    28   ar
    20    28    29   ar
    21    29    32    1
    22    32    33    1
    23    32    34    2
    24    32    35    2
    25    29    30   ar
    26    30    31   ar
    27     3     4   ar
    28     4     5   ar
    29     5    36    1
    30    36    37    1
    31    37    38    1
    32    37    39    1
    33     5     6   ar
    34    14    15   ar
    35    17    22    1
    36    22    23    1
    37    23    24    1
    38    15    11   ar
    39     6     1   ar
    40    31    26   ar
    41     7    10    1
@<TRIPOS>MOLECULE
*****
 39 41 0 0 0
SMALL
GASTEIGER

@<TRIPOS>ATOM
      1 C         139.9413  144.9880  157.5466 C.ar    1  UNL1        0.0597
      2 C         139.4868  143.7402  156.8493 C.ar    1  UNL1        0.0422
      3 C         138.8056  143.8318  155.5161 C.ar    1  UNL1        0.1486
      4 C         138.5787  145.1713  154.8802 C.ar    1  UNL1        0.0743
      5 C         139.0332  146.4191  155.5775 C.ar    1  UNL1        0.1416
      6 C         139.7145  146.3275  156.9107 C.ar    1  UNL1        0.0416
      7 N         139.8307  144.5444  160.1042 N.am    1  UNL1       -0.2644
      8 C         140.6226  144.8964  158.8799 C.2     1  UNL1        0.2508
      9 O         142.0958  145.1568  158.9887 O.2     1  UNL1       -0.2698
     10 H         138.8637  144.3736  160.0327 H       1  UNL1        0.1566
     11 N         141.7556  143.6032  163.3405 N.ar    1  UNL1       -0.2357
     12 C         141.3650  145.0207  163.6376 C.ar    1  UNL1        0.0988
     13 C         140.5963  145.5458  162.4613 C.ar    1  UNL1        0.0565
     14 C         140.5120  144.4528  161.4374 C.ar    1  UNL1        0.1557
     15 N         141.2284  143.2523  161.9808 N.ar    1  UNL1       -0.1534
     16 C         142.5364  142.6960  164.2445 C.3     1  UNL1        0.2423
     17 P         143.6572  143.2477  165.0748 P.3     1  UNL1        0.3677
     18 O         144.7780  143.7995  165.9051 O.2     1  UNL1       -0.2557
     19 O         144.4906  143.4150  163.8389 O.3     1  UNL1       -0.2928
     20 C         144.9851  142.0634  161.6759 C.3     1  UNL1        0.0352
     21 C         145.0827  142.2127  163.1652 C.3     1  UNL1        0.1515
     22 O         142.8238  143.0805  166.3108 O.3     1  UNL1       -0.2928
     23 C         143.1497  141.9954  167.2939 C.3     1  UNL1        0.1515
     24 C         143.1554  142.2924  168.7642 C.3     1  UNL1        0.0352
     25 O         138.3511  142.5839  154.8187 O.3     1  UNL1       -0.4502
     26 C         137.0552  141.9367  155.2082 C.ar    1  UNL1        0.1835
     27 C         136.9980  141.0327  156.4040 C.ar    1  UNL1        0.1408
     28 N         135.7021  140.3855  156.7935 N.ar    1  UNL1       -0.2062
     29 C         134.4634  140.6421  155.9874 C.ar    1  UNL1        0.2725
     30 N         134.5207  141.5460  154.7917 N.ar    1  UNL1       -0.2062
     31 C         135.8165  142.1933  154.4021 C.ar    1  UNL1        0.1408
     32 S         133.1675  139.9949  156.3769 S.O2    1  UNL1        0.0441
     33 C         131.8717  139.3476  156.7665 C.3     1  UNL1        0.1853
     34 O         133.9156  138.7877  156.8597 O.2     1  UNL1       -0.1656
     35 O         132.4195  141.2020  155.8941 O.2     1  UNL1       -0.1656
     36 O         138.8064  147.7586  154.9417 O.3     1  UNL1       -0.4791
     37 C         139.8978  148.4022  154.1388 C.3     1  UNL1        0.1661
     38 C         140.8020  147.5582  153.2902 C.3     1  UNL1        0.0472
     39 C         140.0851  149.8898  154.1846 C.3     1  UNL1        0.0472
@<TRIPOS>BOND
     1    20    21    1
     2    21    19    1
     3    19    17    1
     4    17    18    2
     5    17    16    1
     6    16    11    1
     7    11    12   ar
     8    12    13   ar
     9    13    14   ar
    10    14     7    1
    11     7     8   am
    12     8     9    2
    13     8     1    1
    14     1     2   ar
    15     2     3   ar
    16     3    25    1
    17    25    26    1
    18    26    27   ar
    19    27    28   ar
    20    28    29   ar
    21    29    32    1
    22    32    33    1
    23    32    34    2
    24    32    35    2
    25    29    30   ar
    26    30    31   ar
    27     3     4   ar
    28     4     5   ar
    29     5    36    1
    30    36    37    1
    31    37    38    1
    32    37    39    1
    33     5     6   ar
    34    14    15   ar
    35    17    22    1
    36    22    23    1
    37    23    24    1
    38    15    11   ar
    39     6     1   ar
    40    31    26   ar
    41     7    10    1
@<TRIPOS>MOLECULE
*****
 39 41 0 0 0
SMALL
GASTEIGER

@<TRIPOS>ATOM
      1 C         139.8281  145.0568  157.5693 C.ar    1  UNL1        0.0597
      2 C         139.3842  143.8153  156.8540 C.ar    1  UNL1        0.0422
      3 C         138.7110  143.9198  155.5177 C.ar    1  UNL1        0.1486
      4 C         138.4816  145.2658  154.8967 C.ar    1  UNL1        0.0743
      5 C         138.9256  146.5073  155.6119 C.ar    1  UNL1        0.1416
      6 C         139.5988  146.4027  156.9482 C.ar    1  UNL1        0.0416
      7 N         139.7467  144.4162  160.0859 N.am    1  UNL1       -0.2644
      8 C         140.5014  144.9523  158.9057 C.2     1  UNL1        0.2508
      9 O         141.9295  145.3839  159.0618 O.2     1  UNL1       -0.2698
     10 H         138.8094  144.1329  159.9834 H       1  UNL1        0.1566
     11 N         141.5105  143.4079  163.3931 N.ar    1  UNL1       -0.2357
     12 C         141.4015  144.8942  163.5642 C.ar    1  UNL1        0.0988
     13 C         140.7275  145.4528  162.3460 C.ar    1  UNL1        0.0565
     14 C         140.4200  144.3117  161.4222 C.ar    1  UNL1        0.1557
     15 N         140.9038  143.0480  162.0693 N.ar    1  UNL1       -0.1534
     16 C         142.1192  142.4499  164.3736 C.3     1  UNL1        0.2423
     17 P         142.2220  140.9926  164.0334 P.3     1  UNL1        0.3677
     18 O         142.3249  139.5353  163.6931 O.2     1  UNL1       -0.2557
     19 O         143.3438  141.2933  163.0840 O.3     1  UNL1       -0.2928
     20 C         145.8165  141.5579  163.8359 C.3     1  UNL1        0.0352
     21 C         144.7017  140.6997  163.3155 C.3     1  UNL1        0.1515
     22 O         141.1003  140.6918  164.9828 O.3     1  UNL1       -0.2928
     23 C         139.7377  140.3576  164.4519 C.3     1  UNL1        0.1515
     24 C         138.5144  140.8898  165.1377 C.3     1  UNL1        0.0352
     25 O         138.2670  142.6783  154.8024 O.3     1  UNL1       -0.4502
     26 C         136.9915  141.9977  155.2024 C.ar    1  UNL1        0.1835
     27 C         135.7413  142.2180  154.4033 C.ar    1  UNL1        0.1408
     28 N         134.4659  141.5375  154.8034 N.ar    1  UNL1       -0.2062
     29 C         134.4406  140.6366  156.0025 C.ar    1  UNL1        0.2725
     30 N         135.6908  140.4164  156.8016 N.ar    1  UNL1       -0.2062
     31 C         136.9663  141.0969  156.4015 C.ar    1  UNL1        0.1408
     32 S         133.1651  139.9561  156.4026 S.O2    1  UNL1        0.0441
     33 C         131.8897  139.2755  156.8027 C.3     1  UNL1        0.1853
     34 O         132.3782  141.1124  155.8607 O.2     1  UNL1       -0.1656
     35 O         133.9521  138.7998  156.9445 O.2     1  UNL1       -0.1656
     36 O         138.6962  147.8533  154.9909 O.3     1  UNL1       -0.4791
     37 C         139.7718  148.4896  154.1614 C.3     1  UNL1        0.1661
     38 C         140.7228  147.6320  153.3803 C.3     1  UNL1        0.0472
     39 C         139.8966  149.9837  154.1131 C.3     1  UNL1        0.0472
@<TRIPOS>BOND
     1    20    21    1
     2    21    19    1
     3    19    17    1
     4    17    18    2
     5    17    16    1
     6    16    11    1
     7    11    12   ar
     8    12    13   ar
     9    13    14   ar
    10    14     7    1
    11     7     8   am
    12     8     9    2
    13     8     1    1
    14     1     2   ar
    15     2     3   ar
    16     3    25    1
    17    25    26    1
    18    26    27   ar
    19    27    28   ar
    20    28    29   ar
    21    29    32    1
    22    32    33    1
    23    32    34    2
    24    32    35    2
    25    29    30   ar
    26    30    31   ar
    27     3     4   ar
    28     4     5   ar
    29     5    36    1
    30    36    37    1
    31    37    38    1
    32    37    39    1
    33     5     6   ar
    34    14    15   ar
    35    17    22    1
    36    22    23    1
    37    23    24    1
    38    15    11   ar
    39     6     1   ar
    40    31    26   ar
    41     7    10    1
@<TRIPOS>MOLECULE
*****
 39 41 0 0 0
SMALL
GASTEIGER

@<TRIPOS>ATOM
      1 C         139.8701  145.0204  157.7045 C.ar    1  UNL1        0.0597
      2 C         139.4368  143.7519  157.0314 C.ar    1  UNL1        0.0422
      3 C         138.8326  143.7995  155.6594 C.ar    1  UNL1        0.1486
      4 C         138.6615  145.1157  154.9605 C.ar    1  UNL1        0.0743
      5 C         139.0948  146.3842  155.6336 C.ar    1  UNL1        0.1416
      6 C         139.6991  146.3365  157.0056 C.ar    1  UNL1        0.0416
      7 N         139.6592  144.4882  160.2388 N.am    1  UNL1       -0.2644
      8 C         140.4744  144.9728  159.0767 C.2     1  UNL1        0.2508
      9 O         141.8939  145.4098  159.2865 O.2     1  UNL1       -0.2698
     10 H         138.7276  144.2014  160.1010 H       1  UNL1        0.1566
     11 N         141.0378  143.6350  163.7654 N.ar    1  UNL1       -0.2357
     12 C         141.3491  145.0998  163.6792 C.ar    1  UNL1        0.0988
     13 C         140.8705  145.5977  162.3475 C.ar    1  UNL1        0.0565
     14 C         140.2635  144.4406  161.6109 C.ar    1  UNL1        0.1557
     15 N         140.3669  143.2276  162.4872 N.ar    1  UNL1       -0.1534
     16 C         141.3438  142.7355  164.9261 C.3     1  UNL1        0.2423
     17 P         141.9924  141.4034  164.6922 P.3     1  UNL1        0.3677
     18 O         142.6410  140.0713  164.4582 O.2     1  UNL1       -0.2557
     19 O         140.6772  140.7216  164.9276 O.3     1  UNL1       -0.2928
     20 C         140.2356  140.0100  167.3869 C.3     1  UNL1        0.0352
     21 C         140.5648  139.6479  165.9690 C.3     1  UNL1        0.1515
     22 O         143.3076  142.0852  164.4567 O.3     1  UNL1       -0.2928
     23 C         144.2541  141.5523  163.4222 C.3     1  UNL1        0.1515
     24 C         145.7351  141.6677  163.6303 C.3     1  UNL1        0.0352
     25 O         138.3993  142.5310  154.9862 O.3     1  UNL1       -0.4502
     26 C         137.0801  141.9089  155.3365 C.ar    1  UNL1        0.1835
     27 C         135.8630  142.2197  154.5166 C.ar    1  UNL1        0.1408
     28 N         134.5438  141.5976  154.8669 N.ar    1  UNL1       -0.2062
     29 C         134.4417  140.6646  156.0371 C.ar    1  UNL1        0.2725
     30 N         135.6588  140.3537  156.8568 N.ar    1  UNL1       -0.2062
     31 C         136.9780  140.9759  156.5065 C.ar    1  UNL1        0.1408
     32 S         133.1225  140.0424  156.3873 S.O2    1  UNL1        0.0441
     33 C         131.8033  139.4203  156.7376 C.3     1  UNL1        0.1853
     34 O         133.8343  138.8383  156.9291 O.2     1  UNL1       -0.1656
     35 O         132.4108  141.2466  155.8456 O.2     1  UNL1       -0.1656
     36 O         138.9238  147.7004  154.9347 O.3     1  UNL1       -0.4791
     37 C         140.0239  148.2380  154.0684 C.3     1  UNL1        0.1661
     38 C         140.2583  149.7173  153.9855 C.3     1  UNL1        0.0472
     39 C         140.8899  147.2965  153.2850 C.3     1  UNL1        0.0472
@<TRIPOS>BOND
     1    20    21    1
     2    21    19    1
     3    19    17    1
     4    17    18    2
     5    17    16    1
     6    16    11    1
     7    11    12   ar
     8    12    13   ar
     9    13    14   ar
    10    14     7    1
    11     7     8   am
    12     8     9    2
    13     8     1    1
    14     1     2   ar
    15     2     3   ar
    16     3    25    1
    17    25    26    1
    18    26    27   ar
    19    27    28   ar
    20    28    29   ar
    21    29    32    1
    22    32    33    1
    23    32    34    2
    24    32    35    2
    25    29    30   ar
    26    30    31   ar
    27     3     4   ar
    28     4     5   ar
    29     5    36    1
    30    36    37    1
    31    37    38    1
    32    37    39    1
    33     5     6   ar
    34    14    15   ar
    35    17    22    1
    36    22    23    1
    37    23    24    1
    38    15    11   ar
    39     6     1   ar
    40    31    26   ar
    41     7    10    1
