@<TRIPOS>MOLECULE
*****
 33 37 0 0 0
SMALL
GASTEIGER

@<TRIPOS>ATOM
      1 N         140.1269  138.3001  162.0244 N.3     1  UNL1       -0.2695
      2 C         140.0399  138.0365  163.4984 C.3     1  UNL1        0.0939
      3 C         141.2401  138.2546  164.3715 C.3     1  UNL1        0.1107
      4 N         142.5272  138.7362  163.7703 N.am    1  UNL1       -0.2764
      5 C         143.7273  138.9543  164.6433 C.2     1  UNL1        0.2301
      6 O         145.0144  139.4360  164.0421 O.2     1  UNL1       -0.2745
      7 C         142.6141  138.9998  162.2962 C.3     1  UNL1        0.1107
      8 C         141.4140  138.7817  161.4233 C.3     1  UNL1        0.0939
      9 C         138.9267  138.0820  161.1514 C.3     1  UNL1        0.0769
     10 C         137.7941  139.0651  161.1741 C.3     1  UNL1        0.0445
     11 O         139.2168  146.0189  161.6780 O.2     1  UNL1       -0.2449
     12 C         138.8227  144.8070  162.4693 C.2     1  UNL1        0.3414
     13 O         138.5676  144.7634  163.9468 O.3     1  UNL1       -0.4404
     14 C         138.2018  143.3554  164.3127 C.3     1  UNL1        0.2364
     15 C         138.2308  142.5289  163.0613 C.ar    1  UNL1        0.0378
     16 C         138.6145  143.4260  161.9220 C.ar    1  UNL1        0.0760
     17 C         138.7248  142.8696  160.5334 C.ar    1  UNL1        0.0060
     18 C         138.4513  141.4158  160.2842 C.ar    1  UNL1       -0.0032
     19 C         138.0676  140.5188  161.4234 C.ar    1  UNL1       -0.0104
     20 C         137.9573  141.0753  162.8120 C.ar    1  UNL1        0.0534
     21 CL        137.5736  140.1781  163.9512 Cl      1  UNL1       -0.0828
     22 C         143.6403  138.6907  166.1174 C.3     1  UNL1        0.1116
     23 C         142.8659  139.6229  167.0015 C.ar    1  UNL1       -0.0130
     24 C         142.4436  139.1801  168.3710 C.ar    1  UNL1       -0.0022
     25 C         141.6693  140.1122  169.2551 C.ar    1  UNL1        0.0190
     26 C         141.3173  141.4871  168.7696 C.ar    1  UNL1        0.0862
     27 C         141.7395  141.9299  167.4001 C.ar    1  UNL1        0.0190
     28 C         142.5139  140.9978  166.5160 C.ar    1  UNL1       -0.0022
     29 N         140.5429  142.4192  169.6537 N.ar    1  UNL1       -0.1886
     30 C         140.6097  143.9175  169.6285 C.ar    1  UNL1        0.2258
     31 N         139.6739  144.4409  170.6774 N.ar    1  UNL1       -0.1045
     32 N         139.0287  143.2662  171.3509 N.ar    1  UNL1       -0.0222
     33 N         139.5658  142.0167  170.7183 N.ar    1  UNL1       -0.0385
@<TRIPOS>BOND
     1    11    12    2
     2    12    13    1
     3    13    14    1
     4    14    15    1
     5    15    16   ar
     6    16    17   ar
     7    17    18   ar
     8    18    19   ar
     9    19    10    1
    10    10     9    1
    11     9     1    1
    12     1     2    1
    13     2     3    1
    14     3     4    1
    15     4     5   am
    16     5     6    2
    17     5    22    1
    18    22    23    1
    19    23    24   ar
    20    24    25   ar
    21    25    26   ar
    22    26    29    1
    23    29    30   ar
    24    30    31   ar
    25    31    32   ar
    26    32    33   ar
    27    26    27   ar
    28    27    28   ar
    29     4     7    1
    30     7     8    1
    31    19    20   ar
    32    20    21    1
    33    16    12    1
    34     8     1    1
    35    20    15   ar
    36    28    23   ar
    37    33    29   ar
@<TRIPOS>MOLECULE
*****
 33 37 0 0 0
SMALL
GASTEIGER

@<TRIPOS>ATOM
      1 N         140.0352  139.0762  161.4744 N.3     1  UNL1       -0.2695
      2 C         140.1803  138.5077  162.8548 C.3     1  UNL1        0.0939
      3 C         141.4760  138.6578  163.5955 C.3     1  UNL1        0.1107
      4 N         142.6267  139.3766  162.9557 N.am    1  UNL1       -0.2764
      5 C         143.9224  139.5268  163.6963 C.2     1  UNL1        0.2301
      6 O         145.0730  140.2455  163.0564 O.2     1  UNL1       -0.2745
      7 C         142.4816  139.9451  161.5752 C.3     1  UNL1        0.1107
      8 C         141.1859  139.7949  160.8345 C.3     1  UNL1        0.0939
      9 C         138.7395  138.9260  160.7337 C.3     1  UNL1        0.0769
     10 C         137.6551  139.9481  160.9044 C.3     1  UNL1        0.0445
     11 O         138.3668  145.1325  165.7262 O.2     1  UNL1       -0.2449
     12 C         138.6260  144.7730  164.2931 C.2     1  UNL1        0.3414
     13 O         139.2668  145.6568  163.2644 O.3     1  UNL1       -0.4404
     14 C         139.3267  144.8967  161.9727 C.3     1  UNL1        0.2364
     15 C         138.7228  143.5431  162.2030 C.ar    1  UNL1        0.0378
     16 C         138.2897  143.4667  163.6371 C.ar    1  UNL1        0.0760
     17 C         137.6451  142.2174  164.1603 C.ar    1  UNL1        0.0060
     18 C         137.4336  141.0445  163.2494 C.ar    1  UNL1       -0.0032
     19 C         137.8667  141.1210  161.8154 C.ar    1  UNL1       -0.0104
     20 C         138.5112  142.3703  161.2921 C.ar    1  UNL1        0.0534
     21 CL        138.9443  142.4467  159.8580 Cl      1  UNL1       -0.0828
     22 C         144.0673  138.9582  165.0768 C.3     1  UNL1        0.1116
     23 C         143.3668  139.6083  166.2330 C.ar    1  UNL1       -0.0130
     24 C         142.9933  141.0594  166.1638 C.ar    1  UNL1       -0.0022
     25 C         142.2927  141.7094  167.3199 C.ar    1  UNL1        0.0190
     26 C         141.9658  140.9084  168.5452 C.ar    1  UNL1        0.0862
     27 C         142.3393  139.4574  168.6145 C.ar    1  UNL1        0.0190
     28 C         143.0398  138.8072  167.4584 C.ar    1  UNL1       -0.0022
     29 N         141.2652  141.5586  169.7014 N.ar    1  UNL1       -0.1886
     30 C         141.5518  141.3182  171.1540 C.ar    1  UNL1        0.2258
     31 N         140.6188  142.1743  171.9583 N.ar    1  UNL1       -0.1045
     32 N         139.7557  142.9436  171.0028 N.ar    1  UNL1       -0.0222
     33 N         140.1552  142.5631  169.6079 N.ar    1  UNL1       -0.0385
@<TRIPOS>BOND
     1    11    12    2
     2    12    13    1
     3    13    14    1
     4    14    15    1
     5    15    16   ar
     6    16    17   ar
     7    17    18   ar
     8    18    19   ar
     9    19    10    1
    10    10     9    1
    11     9     1    1
    12     1     2    1
    13     2     3    1
    14     3     4    1
    15     4     5   am
    16     5     6    2
    17     5    22    1
    18    22    23    1
    19    23    24   ar
    20    24    25   ar
    21    25    26   ar
    22    26    29    1
    23    29    30   ar
    24    30    31   ar
    25    31    32   ar
    26    32    33   ar
    27    26    27   ar
    28    27    28   ar
    29     4     7    1
    30     7     8    1
    31    19    20   ar
    32    20    21    1
    33    16    12    1
    34     8     1    1
    35    20    15   ar
    36    28    23   ar
    37    33    29   ar
@<TRIPOS>MOLECULE
*****
 33 37 0 0 0
SMALL
GASTEIGER

@<TRIPOS>ATOM
      1 N         143.1133  141.4388  161.3271 N.3     1  UNL1       -0.2695
      2 C         143.6008  141.4702  162.7452 C.3     1  UNL1        0.0939
      3 C         143.2479  140.3552  163.6846 C.3     1  UNL1        0.1107
      4 N         142.4074  139.2089  163.2057 N.am    1  UNL1       -0.2764
      5 C         142.0545  138.0939  164.1450 C.2     1  UNL1        0.2301
      6 O         141.2140  136.9476  163.6660 O.2     1  UNL1       -0.2745
      7 C         141.9198  139.1775  161.7875 C.3     1  UNL1        0.1107
      8 C         142.2727  140.2925  160.8482 C.3     1  UNL1        0.0939
      9 C         143.4662  142.5538  160.3877 C.3     1  UNL1        0.0769
     10 C         142.6571  143.8168  160.3853 C.3     1  UNL1        0.0445
     11 O         138.5402  145.4015  165.9686 O.2     1  UNL1       -0.2449
     12 C         138.5479  144.7338  164.6254 C.2     1  UNL1        0.3414
     13 O         137.3782  144.0644  163.9669 O.3     1  UNL1       -0.4404
     14 C         137.8339  143.5352  162.6394 C.3     1  UNL1        0.2364
     15 C         139.2853  143.8775  162.4775 C.ar    1  UNL1        0.0378
     16 C         139.7265  144.6183  163.7049 C.ar    1  UNL1        0.0760
     17 C         141.1446  145.0920  163.8258 C.ar    1  UNL1        0.0060
     18 C         142.1215  144.8248  162.7192 C.ar    1  UNL1       -0.0032
     19 C         141.6803  144.0840  161.4919 C.ar    1  UNL1       -0.0104
     20 C         140.2622  143.6104  161.3710 C.ar    1  UNL1        0.0534
     21 CL        139.8209  142.8696  160.1436 Cl      1  UNL1       -0.0828
     22 C         142.5422  138.1254  165.5632 C.3     1  UNL1        0.1116
     23 C         141.9906  139.1369  166.5236 C.ar    1  UNL1       -0.0130
     24 C         142.8948  139.7899  167.5266 C.ar    1  UNL1       -0.0022
     25 C         142.3432  140.8014  168.4870 C.ar    1  UNL1        0.0190
     26 C         140.8873  141.1601  168.4444 C.ar    1  UNL1        0.0862
     27 C         139.9830  140.5072  167.4415 C.ar    1  UNL1        0.0190
     28 C         140.5346  139.4956  166.4810 C.ar    1  UNL1       -0.0022
     29 N         140.3358  142.1717  169.4049 N.ar    1  UNL1       -0.1886
     30 C         140.6248  143.6436  169.3976 C.ar    1  UNL1        0.2258
     31 N         139.8661  144.2706  170.5295 N.ar    1  UNL1       -0.1045
     32 N         139.1081  143.1863  171.2363 N.ar    1  UNL1       -0.0222
     33 N         139.3984  141.8892  170.5413 N.ar    1  UNL1       -0.0385
@<TRIPOS>BOND
     1    11    12    2
     2    12    13    1
     3    13    14    1
     4    14    15    1
     5    15    16   ar
     6    16    17   ar
     7    17    18   ar
     8    18    19   ar
     9    19    10    1
    10    10     9    1
    11     9     1    1
    12     1     2    1
    13     2     3    1
    14     3     4    1
    15     4     5   am
    16     5     6    2
    17     5    22    1
    18    22    23    1
    19    23    24   ar
    20    24    25   ar
    21    25    26   ar
    22    26    29    1
    23    29    30   ar
    24    30    31   ar
    25    31    32   ar
    26    32    33   ar
    27    26    27   ar
    28    27    28   ar
    29     4     7    1
    30     7     8    1
    31    19    20   ar
    32    20    21    1
    33    16    12    1
    34     8     1    1
    35    20    15   ar
    36    28    23   ar
    37    33    29   ar
@<TRIPOS>MOLECULE
*****
 33 37 0 0 0
SMALL
GASTEIGER

@<TRIPOS>ATOM
      1 N         138.5869  140.3429  160.0502 N.3     1  UNL1       -0.2695
      2 C         137.7546  140.2756  161.2961 C.3     1  UNL1        0.0939
      3 C         138.1572  139.3660  162.4189 C.3     1  UNL1        0.1107
      4 N         139.3922  138.5237  162.2956 N.am    1  UNL1       -0.2764
      5 C         139.7948  137.6141  163.4183 C.2     1  UNL1        0.2301
      6 O         141.0298  136.7717  163.2949 O.2     1  UNL1       -0.2745
      7 C         140.2245  138.5909  161.0495 C.3     1  UNL1        0.1107
      8 C         139.8219  139.5005  159.9268 C.3     1  UNL1        0.0939
      9 C         138.1842  141.2525  158.9274 C.3     1  UNL1        0.0769
     10 C         138.5405  142.7086  158.9773 C.3     1  UNL1        0.0445
     11 O         144.3306  144.8117  162.5388 O.2     1  UNL1       -0.2449
     12 C         142.8497  144.6044  162.6572 C.2     1  UNL1        0.3414
     13 O         142.0187  144.8593  163.8797 O.3     1  UNL1       -0.4404
     14 C         140.5952  144.5182  163.5519 C.3     1  UNL1        0.2364
     15 C         140.5465  144.0525  162.1269 C.ar    1  UNL1        0.0378
     16 C         141.9399  144.1057  161.5739 C.ar    1  UNL1        0.0760
     17 C         142.2001  143.6933  160.1555 C.ar    1  UNL1        0.0060
     18 C         141.0669  143.2276  159.2899 C.ar    1  UNL1       -0.0032
     19 C         139.6737  143.1743  159.8428 C.ar    1  UNL1       -0.0104
     20 C         139.4134  143.5868  161.2613 C.ar    1  UNL1        0.0534
     21 CL        138.0201  143.5335  161.8142 Cl      1  UNL1       -0.0828
     22 C         138.9624  137.5469  164.6644 C.3     1  UNL1        0.1116
     23 C         139.2094  138.5137  165.7843 C.ar    1  UNL1       -0.0130
     24 C         138.2044  138.6546  166.8889 C.ar    1  UNL1       -0.0022
     25 C         138.4514  139.6215  168.0088 C.ar    1  UNL1        0.0190
     26 C         139.7034  140.4474  168.0241 C.ar    1  UNL1        0.0862
     27 C         140.7084  140.3067  166.9196 C.ar    1  UNL1        0.0190
     28 C         140.4615  139.3398  165.7996 C.ar    1  UNL1       -0.0022
     29 N         139.9503  141.4143  169.1440 N.ar    1  UNL1       -0.1886
     30 C         140.5046  142.8012  169.0053 C.ar    1  UNL1        0.2258
     31 N         140.5832  143.4081  170.3748 N.ar    1  UNL1       -0.1045
     32 N         140.0775  142.3963  171.3599 N.ar    1  UNL1       -0.0222
     33 N         139.6864  141.1641  170.5992 N.ar    1  UNL1       -0.0385
@<TRIPOS>BOND
     1    11    12    2
     2    12    13    1
     3    13    14    1
     4    14    15    1
     5    15    16   ar
     6    16    17   ar
     7    17    18   ar
     8    18    19   ar
     9    19    10    1
    10    10     9    1
    11     9     1    1
    12     1     2    1
    13     2     3    1
    14     3     4    1
    15     4     5   am
    16     5     6    2
    17     5    22    1
    18    22    23    1
    19    23    24   ar
    20    24    25   ar
    21    25    26   ar
    22    26    29    1
    23    29    30   ar
    24    30    31   ar
    25    31    32   ar
    26    32    33   ar
    27    26    27   ar
    28    27    28   ar
    29     4     7    1
    30     7     8    1
    31    19    20   ar
    32    20    21    1
    33    16    12    1
    34     8     1    1
    35    20    15   ar
    36    28    23   ar
    37    33    29   ar
@<TRIPOS>MOLECULE
*****
 33 37 0 0 0
SMALL
GASTEIGER

@<TRIPOS>ATOM
      1 N         142.2680  142.1324  159.7688 N.3     1  UNL1       -0.2695
      2 C         141.9434  140.9190  160.5886 C.3     1  UNL1        0.0939
      3 C         142.8472  140.5103  161.7139 C.3     1  UNL1        0.1107
      4 N         144.0757  141.3151  162.0192 N.am    1  UNL1       -0.2764
      5 C         144.9795  140.9065  163.1444 C.2     1  UNL1        0.2301
      6 O         146.2079  141.7113  163.4498 O.2     1  UNL1       -0.2745
      7 C         144.4003  142.5286  161.1994 C.3     1  UNL1        0.1107
      8 C         143.4964  142.9372  160.0742 C.3     1  UNL1        0.0939
      9 C         141.3642  142.5411  158.6435 C.3     1  UNL1        0.0769
     10 C         140.1538  143.3822  158.9214 C.3     1  UNL1        0.0445
     11 O         138.5179  145.1652  165.6131 O.2     1  UNL1       -0.2449
     12 C         138.2829  144.1376  164.5459 C.2     1  UNL1        0.3414
     13 O         137.4172  142.9190  164.6706 O.3     1  UNL1       -0.4404
     14 C         137.4716  142.1764  163.3684 C.3     1  UNL1        0.2364
     15 C         138.3710  142.9361  162.4389 C.ar    1  UNL1        0.0378
     16 C         138.8724  144.1482  163.1666 C.ar    1  UNL1        0.0760
     17 C         139.8009  145.1049  162.4793 C.ar    1  UNL1        0.0060
     18 C         140.2280  144.8495  161.0642 C.ar    1  UNL1       -0.0032
     19 C         139.7266  143.6375  160.3365 C.ar    1  UNL1       -0.0104
     20 C         138.7981  142.6808  161.0239 C.ar    1  UNL1        0.0534
     21 CL        138.2967  141.4687  160.2961 Cl      1  UNL1       -0.0828
     22 C         144.6548  139.6930  163.9643 C.3     1  UNL1        0.1116
     23 C         143.8178  139.8261  165.2019 C.ar    1  UNL1       -0.0130
     24 C         143.1545  141.1329  165.5218 C.ar    1  UNL1       -0.0022
     25 C         142.3175  141.2659  166.7595 C.ar    1  UNL1        0.0190
     26 C         142.1439  140.0922  167.6772 C.ar    1  UNL1        0.0862
     27 C         142.8071  138.7854  167.3574 C.ar    1  UNL1        0.0190
     28 C         143.6441  138.6523  166.1197 C.ar    1  UNL1       -0.0022
     29 N         141.3068  140.2254  168.9149 N.ar    1  UNL1       -0.1886
     30 C         141.7471  140.8271  170.2164 C.ar    1  UNL1        0.2258
     31 N         140.5951  140.7538  171.1742 N.ar    1  UNL1       -0.1045
     32 N         139.4428  140.1068  170.4646 N.ar    1  UNL1       -0.0222
     33 N         139.8827  139.7802  169.0683 N.ar    1  UNL1       -0.0385
@<TRIPOS>BOND
     1    11    12    2
     2    12    13    1
     3    13    14    1
     4    14    15    1
     5    15    16   ar
     6    16    17   ar
     7    17    18   ar
     8    18    19   ar
     9    19    10    1
    10    10     9    1
    11     9     1    1
    12     1     2    1
    13     2     3    1
    14     3     4    1
    15     4     5   am
    16     5     6    2
    17     5    22    1
    18    22    23    1
    19    23    24   ar
    20    24    25   ar
    21    25    26   ar
    22    26    29    1
    23    29    30   ar
    24    30    31   ar
    25    31    32   ar
    26    32    33   ar
    27    26    27   ar
    28    27    28   ar
    29     4     7    1
    30     7     8    1
    31    19    20   ar
    32    20    21    1
    33    16    12    1
    34     8     1    1
    35    20    15   ar
    36    28    23   ar
    37    33    29   ar
@<TRIPOS>MOLECULE
*****
 33 37 0 0 0
SMALL
GASTEIGER

@<TRIPOS>ATOM
      1 N         139.6681  142.3087  160.9800 N.3     1  UNL1       -0.2695
      2 C         138.8075  142.1909  162.2028 C.3     1  UNL1        0.0939
      3 C         138.7293  140.8882  162.9425 C.3     1  UNL1        0.1107
      4 N         139.5119  139.7033  162.4591 N.am    1  UNL1       -0.2764
      5 C         139.4338  138.4007  163.1987 C.2     1  UNL1        0.2301
      6 O         140.2164  137.2158  162.7154 O.2     1  UNL1       -0.2745
      7 C         140.3726  139.8211  161.2363 C.3     1  UNL1        0.1107
      8 C         140.4506  141.1238  160.4967 C.3     1  UNL1        0.0939
      9 C         139.7462  143.6114  160.2404 C.3     1  UNL1        0.0769
     10 C         140.9054  144.5354  160.4692 C.3     1  UNL1        0.0445
     11 O         144.8932  143.8576  166.3233 O.2     1  UNL1       -0.2449
     12 C         144.7675  143.4270  164.8919 C.2     1  UNL1        0.3414
     13 O         145.7013  142.5071  164.1626 O.3     1  UNL1       -0.4404
     14 C         145.1969  142.3523  162.7585 C.3     1  UNL1        0.2364
     15 C         143.9513  143.1766  162.6200 C.ar    1  UNL1        0.0378
     16 C         143.6860  143.8407  163.9385 C.ar    1  UNL1        0.0760
     17 C         142.4938  144.7365  164.1006 C.ar    1  UNL1        0.0060
     18 C         141.5669  144.9680  162.9441 C.ar    1  UNL1       -0.0032
     19 C         141.8322  144.3038  161.6257 C.ar    1  UNL1       -0.0104
     20 C         143.0244  143.4081  161.4636 C.ar    1  UNL1        0.0534
     21 CL        143.2898  142.7439  160.1451 Cl      1  UNL1       -0.0828
     22 C         138.5731  138.2830  164.4216 C.3     1  UNL1        0.1116
     23 C         139.0318  138.8749  165.7213 C.ar    1  UNL1       -0.0130
     24 C         140.4420  139.3652  165.8659 C.ar    1  UNL1       -0.0022
     25 C         140.9007  139.9570  167.1656 C.ar    1  UNL1        0.0190
     26 C         139.9492  140.0586  168.3207 C.ar    1  UNL1        0.0862
     27 C         138.5391  139.5683  168.1762 C.ar    1  UNL1        0.0190
     28 C         138.0803  138.9764  166.8765 C.ar    1  UNL1       -0.0022
     29 N         140.4080  140.6505  169.6205 N.ar    1  UNL1       -0.1886
     30 C         141.6765  140.3102  170.3452 C.ar    1  UNL1        0.2258
     31 N         141.7314  141.1359  171.5962 N.ar    1  UNL1       -0.1045
     32 N         140.4969  141.9865  171.6447 N.ar    1  UNL1       -0.0222
     33 N         139.6790  141.6865  170.4236 N.ar    1  UNL1       -0.0385
@<TRIPOS>BOND
     1    11    12    2
     2    12    13    1
     3    13    14    1
     4    14    15    1
     5    15    16   ar
     6    16    17   ar
     7    17    18   ar
     8    18    19   ar
     9    19    10    1
    10    10     9    1
    11     9     1    1
    12     1     2    1
    13     2     3    1
    14     3     4    1
    15     4     5   am
    16     5     6    2
    17     5    22    1
    18    22    23    1
    19    23    24   ar
    20    24    25   ar
    21    25    26   ar
    22    26    29    1
    23    29    30   ar
    24    30    31   ar
    25    31    32   ar
    26    32    33   ar
    27    26    27   ar
    28    27    28   ar
    29     4     7    1
    30     7     8    1
    31    19    20   ar
    32    20    21    1
    33    16    12    1
    34     8     1    1
    35    20    15   ar
    36    28    23   ar
    37    33    29   ar
@<TRIPOS>MOLECULE
*****
 33 37 0 0 0
SMALL
GASTEIGER

@<TRIPOS>ATOM
      1 N         143.0470  139.7046  160.0831 N.3     1  UNL1       -0.2695
      2 C         143.6364  139.5024  161.4474 C.3     1  UNL1        0.0939
      3 C         142.8041  138.9047  162.5430 C.3     1  UNL1        0.1107
      4 N         141.3824  138.5091  162.2739 N.am    1  UNL1       -0.2764
      5 C         140.5501  137.9114  163.3694 C.2     1  UNL1        0.2301
      6 O         139.1285  137.5159  163.1003 O.2     1  UNL1       -0.2745
      7 C         140.7930  138.7113  160.9095 C.3     1  UNL1        0.1107
      8 C         141.6253  139.3091  159.8140 C.3     1  UNL1        0.0939
      9 C         143.8793  140.3023  158.9875 C.3     1  UNL1        0.0769
     10 C         144.1018  141.7849  158.9385 C.3     1  UNL1        0.0445
     11 O         139.1168  146.1257  161.5729 O.2     1  UNL1       -0.2449
     12 C         140.4397  145.4850  161.8717 C.2     1  UNL1        0.3414
     13 O         141.2361  145.6528  163.1318 O.3     1  UNL1       -0.4404
     14 C         142.4871  144.8355  163.0018 C.3     1  UNL1        0.2364
     15 C         142.4640  144.1626  161.6614 C.ar    1  UNL1        0.0378
     16 C         141.1987  144.5640  160.9630 C.ar    1  UNL1        0.0760
     17 C         140.9010  144.0391  159.5897 C.ar    1  UNL1        0.0060
     18 C         141.8688  143.1127  158.9149 C.ar    1  UNL1       -0.0032
     19 C         143.1340  142.7113  159.6133 C.ar    1  UNL1       -0.0104
     20 C         143.4317  143.2362  160.9866 C.ar    1  UNL1        0.0534
     21 CL        144.6970  142.8348  161.6850 Cl      1  UNL1       -0.0828
     22 C         141.1396  137.7092  164.7338 C.3     1  UNL1        0.1116
     23 C         140.9079  138.7288  165.8094 C.ar    1  UNL1       -0.0130
     24 C         139.5108  139.1551  166.1503 C.ar    1  UNL1       -0.0022
     25 C         139.2791  140.1746  167.2259 C.ar    1  UNL1        0.0190
     26 C         140.4446  140.7678  167.9606 C.ar    1  UNL1        0.0862
     27 C         141.8418  140.3416  167.6198 C.ar    1  UNL1        0.0190
     28 C         142.0735  139.3220  166.5441 C.ar    1  UNL1       -0.0022
     29 N         140.2129  141.7874  169.0362 N.ar    1  UNL1       -0.1886
     30 C         140.4709  143.2608  168.9247 C.ar    1  UNL1        0.2258
     31 N         140.1000  143.8966  170.2316 N.ar    1  UNL1       -0.1045
     32 N         139.6127  142.8161  171.1509 N.ar    1  UNL1       -0.0222
     33 N         139.6825  141.5126  170.4121 N.ar    1  UNL1       -0.0385
@<TRIPOS>BOND
     1    11    12    2
     2    12    13    1
     3    13    14    1
     4    14    15    1
     5    15    16   ar
     6    16    17   ar
     7    17    18   ar
     8    18    19   ar
     9    19    10    1
    10    10     9    1
    11     9     1    1
    12     1     2    1
    13     2     3    1
    14     3     4    1
    15     4     5   am
    16     5     6    2
    17     5    22    1
    18    22    23    1
    19    23    24   ar
    20    24    25   ar
    21    25    26   ar
    22    26    29    1
    23    29    30   ar
    24    30    31   ar
    25    31    32   ar
    26    32    33   ar
    27    26    27   ar
    28    27    28   ar
    29     4     7    1
    30     7     8    1
    31    19    20   ar
    32    20    21    1
    33    16    12    1
    34     8     1    1
    35    20    15   ar
    36    28    23   ar
    37    33    29   ar
@<TRIPOS>MOLECULE
*****
 33 37 0 0 0
SMALL
GASTEIGER

@<TRIPOS>ATOM
      1 N         141.8109  138.9137  159.7824 N.3     1  UNL1       -0.2695
      2 C         141.8714  138.2344  161.1183 C.3     1  UNL1        0.0939
      3 C         142.8398  138.7122  162.1595 C.3     1  UNL1        0.1107
      4 N         143.7476  139.8693  161.8647 N.am    1  UNL1       -0.2764
      5 C         144.7160  140.3470  162.9058 C.2     1  UNL1        0.2301
      6 O         145.6238  141.5041  162.6109 O.2     1  UNL1       -0.2745
      7 C         143.6871  140.5486  160.5287 C.3     1  UNL1        0.1107
      8 C         142.7187  140.0708  159.4875 C.3     1  UNL1        0.0939
      9 C         140.8425  138.4360  158.7412 C.3     1  UNL1        0.0769
     10 C         139.4327  138.9481  158.7368 C.3     1  UNL1        0.0445
     11 O         137.8097  144.7764  162.4824 O.2     1  UNL1       -0.2449
     12 C         137.8015  143.2769  162.5192 C.2     1  UNL1        0.3414
     13 O         137.3215  142.4254  163.6570 O.3     1  UNL1       -0.4404
     14 C         137.4952  140.9878  163.2656 C.3     1  UNL1        0.2364
     15 C         138.0826  140.9508  161.8859 C.ar    1  UNL1        0.0378
     16 C         138.2719  142.3655  161.4246 C.ar    1  UNL1        0.0760
     17 C         138.8481  142.6411  160.0674 C.ar    1  UNL1        0.0060
     18 C         139.2351  141.5019  159.1715 C.ar    1  UNL1       -0.0032
     19 C         139.0458  140.0873  159.6328 C.ar    1  UNL1       -0.0104
     20 C         138.4696  139.8117  160.9899 C.ar    1  UNL1        0.0534
     21 CL        138.2803  138.3970  161.4512 Cl      1  UNL1       -0.0828
     22 C         144.7765  139.6676  164.2418 C.3     1  UNL1        0.1116
     23 C         143.8276  140.0703  165.3315 C.ar    1  UNL1       -0.0130
     24 C         143.4297  141.5083  165.4861 C.ar    1  UNL1       -0.0022
     25 C         142.4808  141.9109  166.5758 C.ar    1  UNL1        0.0190
     26 C         141.9298  140.8756  167.5109 C.ar    1  UNL1        0.0862
     27 C         142.3275  139.4376  167.3564 C.ar    1  UNL1        0.0190
     28 C         143.2765  139.0349  166.2666 C.ar    1  UNL1       -0.0022
     29 N         140.9808  141.2783  168.6006 N.ar    1  UNL1       -0.1886
     30 C         139.9827  140.3846  169.2754 C.ar    1  UNL1        0.2258
     31 N         139.2484  141.1993  170.2986 N.ar    1  UNL1       -0.1045
     32 N         139.7927  142.5964  170.2563 N.ar    1  UNL1       -0.0222
     33 N         140.8633  142.6452  169.2069 N.ar    1  UNL1       -0.0385
@<TRIPOS>BOND
     1    11    12    2
     2    12    13    1
     3    13    14    1
     4    14    15    1
     5    15    16   ar
     6    16    17   ar
     7    17    18   ar
     8    18    19   ar
     9    19    10    1
    10    10     9    1
    11     9     1    1
    12     1     2    1
    13     2     3    1
    14     3     4    1
    15     4     5   am
    16     5     6    2
    17     5    22    1
    18    22    23    1
    19    23    24   ar
    20    24    25   ar
    21    25    26   ar
    22    26    29    1
    23    29    30   ar
    24    30    31   ar
    25    31    32   ar
    26    32    33   ar
    27    26    27   ar
    28    27    28   ar
    29     4     7    1
    30     7     8    1
    31    19    20   ar
    32    20    21    1
    33    16    12    1
    34     8     1    1
    35    20    15   ar
    36    28    23   ar
    37    33    29   ar
@<TRIPOS>MOLECULE
*****
 33 37 0 0 0
SMALL
GASTEIGER

@<TRIPOS>ATOM
      1 N         138.3596  140.9004  161.5809 N.3     1  UNL1       -0.2695
      2 C         138.0227  141.4958  162.9157 C.3     1  UNL1        0.0939
      3 C         138.1129  140.6565  164.1557 C.3     1  UNL1        0.1107
      4 N         138.5400  139.2217  164.0608 N.am    1  UNL1       -0.2764
      5 C         138.6301  138.3824  165.3007 C.2     1  UNL1        0.2301
      6 O         139.0572  136.9477  165.2057 O.2     1  UNL1       -0.2745
      7 C         138.8769  138.6263  162.7259 C.3     1  UNL1        0.1107
      8 C         138.7867  139.4656  161.4859 C.3     1  UNL1        0.0939
      9 C         138.2694  141.7397  160.3409 C.3     1  UNL1        0.0769
     10 C         139.5042  142.3746  159.7736 C.3     1  UNL1        0.0445
     11 O         145.6446  142.0583  163.3554 O.2     1  UNL1       -0.2449
     12 C         144.4068  142.8808  163.1521 C.2     1  UNL1        0.3414
     13 O         144.0857  144.1752  163.8386 O.3     1  UNL1       -0.4404
     14 C         142.7532  144.6477  163.3374 C.3     1  UNL1        0.2364
     15 C         142.2507  143.6453  162.3412 C.ar    1  UNL1        0.0378
     16 C         143.2726  142.5532  162.2267 C.ar    1  UNL1        0.0760
     17 C         143.0385  141.4017  161.2944 C.ar    1  UNL1        0.0060
     18 C         141.7823  141.3422  160.4768 C.ar    1  UNL1       -0.0032
     19 C         140.7604  142.4341  160.5913 C.ar    1  UNL1       -0.0104
     20 C         140.9946  143.5857  161.5235 C.ar    1  UNL1        0.0534
     21 CL        139.9726  144.6777  161.6380 Cl      1  UNL1       -0.0828
     22 C         138.2932  138.9780  166.6356 C.3     1  UNL1        0.1116
     23 C         139.3088  139.8065  167.3650 C.ar    1  UNL1       -0.0130
     24 C         139.0267  140.2828  168.7591 C.ar    1  UNL1       -0.0022
     25 C         140.0423  141.1113  169.4885 C.ar    1  UNL1        0.0190
     26 C         141.3401  141.4635  168.8238 C.ar    1  UNL1        0.0862
     27 C         141.6223  140.9873  167.4298 C.ar    1  UNL1        0.0190
     28 C         140.6066  140.1587  166.7003 C.ar    1  UNL1       -0.0022
     29 N         142.3557  142.2921  169.5534 N.ar    1  UNL1       -0.1886
     30 C         143.8428  142.2288  169.3677 C.ar    1  UNL1        0.2258
     31 N         144.4687  143.2269  170.2961 N.ar    1  UNL1       -0.1045
     32 N         143.3684  143.9070  171.0556 N.ar    1  UNL1       -0.0222
     33 N         142.0626  143.3293  170.5965 N.ar    1  UNL1       -0.0385
@<TRIPOS>BOND
     1    11    12    2
     2    12    13    1
     3    13    14    1
     4    14    15    1
     5    15    16   ar
     6    16    17   ar
     7    17    18   ar
     8    18    19   ar
     9    19    10    1
    10    10     9    1
    11     9     1    1
    12     1     2    1
    13     2     3    1
    14     3     4    1
    15     4     5   am
    16     5     6    2
    17     5    22    1
    18    22    23    1
    19    23    24   ar
    20    24    25   ar
    21    25    26   ar
    22    26    29    1
    23    29    30   ar
    24    30    31   ar
    25    31    32   ar
    26    32    33   ar
    27    26    27   ar
    28    27    28   ar
    29     4     7    1
    30     7     8    1
    31    19    20   ar
    32    20    21    1
    33    16    12    1
    34     8     1    1
    35    20    15   ar
    36    28    23   ar
    37    33    29   ar
