@<TRIPOS>MOLECULE
*****
 36 39 0 0 0
SMALL
GASTEIGER

@<TRIPOS>ATOM
      1 C         139.6627  139.0820  164.8436 C.ar    1  UNL1        0.0313
      2 C         140.1459  140.2143  165.7005 C.ar    1  UNL1        0.0051
      3 C         139.6603  140.3458  167.1135 C.ar    1  UNL1        0.0311
      4 C         140.1436  141.4782  167.9704 C.ar    1  UNL1        0.0522
      5 C         139.6579  141.6096  169.3835 C.ar    1  UNL1        0.0853
      6 C         138.6890  140.6087  169.9398 C.ar    1  UNL1        0.1045
      7 N         138.2058  139.4764  169.0829 N.ar    1  UNL1       -0.2435
      8 C         138.6914  139.3449  167.6698 C.ar    1  UNL1        0.0847
      9 C         138.2081  138.2125  166.8130 C.ar    1  UNL1        0.0488
     10 C         138.6938  138.0811  165.3999 C.ar    1  UNL1        0.1417
     11 F         138.2105  136.9487  164.5430 F       1  UNL1       -0.2041
     12 C         141.1196  138.6874  160.6043 C.ar    1  UNL1        0.0911
     13 C         140.3215  139.8895  161.0142 C.ar    1  UNL1        0.0174
     14 C         139.8358  140.0210  162.4274 C.ar    1  UNL1        0.0052
     15 C         140.1483  138.9505  163.4305 C.ar    1  UNL1        0.0481
     16 C         140.9465  137.7484  163.0205 C.ar    1  UNL1        0.2220
     17 F         141.2589  136.6779  164.0237 F       1  UNL1       -0.1832
     18 N         141.4321  137.6169  161.6075 N.ar    1  UNL1       -0.2199
     19 C         141.6052  138.5559  159.1912 C.3     1  UNL1        0.1876
     20 C         143.7912  139.9021  159.5905 C.3     1  UNL1        0.1747
     21 O         143.0450  138.8217  158.8652 O.3     1  UNL1       -0.3447
     22 C         140.1412  142.7420  170.2404 C.2     1  UNL1        0.2455
     23 N         140.5705  142.4826  171.6541 N.am    1  UNL1       -0.3252
     24 O         140.1951  144.1338  169.6837 O.2     1  UNL1       -0.2703
     25 H         140.5351  141.5691  172.0195 H       1  UNL1        0.1453
     26 H         140.8876  143.2258  172.2165 H       1  UNL1        0.1453
     27 N         141.1125  142.4791  167.4142 N.pl3   1  UNL1       -0.3292
     28 H         140.7807  143.3130  167.0094 H       1  UNL1        0.1471
     29 C         142.5868  142.2095  167.4747 C.3     1  UNL1        0.1117
     30 C         143.2695  142.0680  168.8028 C.3     1  UNL1        0.0278
     31 C         143.3785  142.0813  166.2071 C.ar    1  UNL1        0.0978
     32 C         144.1437  143.1798  165.5306 C.ar    1  UNL1        0.0383
     33 C         144.7820  142.6096  164.2988 C.ar    1  UNL1        0.0964
     34 N         144.4113  141.1586  164.2139 N.ar    1  UNL1       -0.2476
     35 C         144.8339  140.2020  163.1386 C.3     1  UNL1        0.1537
     36 N         143.5439  140.8320  165.3933 N.ar    1  UNL1       -0.1719
@<TRIPOS>BOND
     1    20    21    1
     2    21    19    1
     3    19    12    1
     4    12    13   ar
     5    13    14   ar
     6    14    15   ar
     7    15     1    1
     8     1     2   ar
     9     2     3   ar
    10     3     4   ar
    11     4    27    1
    12    27    29    1
    13    29    30    1
    14    29    31    1
    15    31    32   ar
    16    32    33   ar
    17    33    34   ar
    18    34    35    1
    19    34    36   ar
    20     4     5   ar
    21     5    22    1
    22    22    23   am
    23    22    24    2
    24     5     6   ar
    25     6     7   ar
    26     7     8   ar
    27     8     9   ar
    28     9    10   ar
    29    10    11    1
    30    15    16   ar
    31    16    17    1
    32    16    18   ar
    33    18    12   ar
    34    10     1   ar
    35     8     3   ar
    36    36    31   ar
    37    27    28    1
    38    23    25    1
    39    23    26    1
@<TRIPOS>MOLECULE
*****
 36 39 0 0 0
SMALL
GASTEIGER

@<TRIPOS>ATOM
      1 C         139.5707  139.3057  164.9941 C.ar    1  UNL1        0.0313
      2 C         139.7398  140.4231  164.0079 C.ar    1  UNL1        0.0051
      3 C         139.5220  140.1718  162.5452 C.ar    1  UNL1        0.0311
      4 C         139.6910  141.2893  161.5589 C.ar    1  UNL1        0.0522
      5 C         139.4732  141.0380  160.0963 C.ar    1  UNL1        0.0853
      6 C         139.0864  139.6693  159.6199 C.ar    1  UNL1        0.1045
      7 N         138.9173  138.5519  160.6061 N.ar    1  UNL1       -0.2435
      8 C         139.1351  138.8031  162.0688 C.ar    1  UNL1        0.0847
      9 C         138.9661  137.6857  163.0551 C.ar    1  UNL1        0.0488
     10 C         139.1839  137.9370  164.5177 C.ar    1  UNL1        0.1417
     11 F         139.0148  136.8195  165.5040 F       1  UNL1       -0.2041
     12 C         140.2240  140.0594  169.3822 C.ar    1  UNL1        0.0911
     13 C         141.3596  140.2228  168.4160 C.ar    1  UNL1        0.0174
     14 C         141.1418  139.9716  166.9532 C.ar    1  UNL1        0.0052
     15 C         139.7885  139.5569  166.4568 C.ar    1  UNL1        0.0481
     16 C         138.6529  139.3935  167.4231 C.ar    1  UNL1        0.2220
     17 F         137.2995  138.9788  166.9267 F       1  UNL1       -0.1832
     18 N         138.8706  139.6447  168.8858 N.ar    1  UNL1       -0.2199
     19 C         140.4418  140.3106  170.8449 C.3     1  UNL1        0.1876
     20 C         139.8244  142.8191  170.5680 C.3     1  UNL1        0.1747
     21 O         140.4435  141.7147  171.3726 O.3     1  UNL1       -0.3447
     22 C         139.6423  142.1555  159.1099 C.2     1  UNL1        0.2455
     23 N         140.4860  141.9544  157.8861 N.am    1  UNL1       -0.3252
     24 O         138.9676  143.4739  159.3474 O.2     1  UNL1       -0.2703
     25 H         140.9288  141.0890  157.7303 H       1  UNL1        0.1453
     26 H         140.5970  142.6878  157.2388 H       1  UNL1        0.1453
     27 N         140.0779  142.6580  162.0353 N.pl3   1  UNL1       -0.3292
     28 H         139.3830  143.2949  162.3196 H       1  UNL1        0.1471
     29 C         141.5234  143.0563  162.0786 C.3     1  UNL1        0.1117
     30 C         142.0399  144.1082  161.1423 C.3     1  UNL1        0.0278
     31 C         142.4524  142.4027  163.0582 C.ar    1  UNL1        0.0978
     32 C         142.7313  142.8704  164.4559 C.ar    1  UNL1        0.0383
     33 C         143.7169  141.9233  165.0737 C.ar    1  UNL1        0.0964
     34 N         144.0472  140.8703  164.0578 N.ar    1  UNL1       -0.2476
     35 C         144.9930  139.7225  164.2531 C.3     1  UNL1        0.1537
     36 N         143.2658  141.1665  162.8121 N.ar    1  UNL1       -0.1719
@<TRIPOS>BOND
     1    20    21    1
     2    21    19    1
     3    19    12    1
     4    12    13   ar
     5    13    14   ar
     6    14    15   ar
     7    15     1    1
     8     1     2   ar
     9     2     3   ar
    10     3     4   ar
    11     4    27    1
    12    27    29    1
    13    29    30    1
    14    29    31    1
    15    31    32   ar
    16    32    33   ar
    17    33    34   ar
    18    34    35    1
    19    34    36   ar
    20     4     5   ar
    21     5    22    1
    22    22    23   am
    23    22    24    2
    24     5     6   ar
    25     6     7   ar
    26     7     8   ar
    27     8     9   ar
    28     9    10   ar
    29    10    11    1
    30    15    16   ar
    31    16    17    1
    32    16    18   ar
    33    18    12   ar
    34    10     1   ar
    35     8     3   ar
    36    36    31   ar
    37    27    28    1
    38    23    25    1
    39    23    26    1
@<TRIPOS>MOLECULE
*****
 36 39 0 0 0
SMALL
GASTEIGER

@<TRIPOS>ATOM
      1 C         143.0358  141.8145  165.0291 C.ar    1  UNL1        0.0313
      2 C         142.0411  142.7819  164.4593 C.ar    1  UNL1        0.0051
      3 C         142.1047  143.1553  163.0080 C.ar    1  UNL1        0.0311
      4 C         141.1099  144.1227  162.4381 C.ar    1  UNL1        0.0522
      5 C         141.1736  144.4961  160.9867 C.ar    1  UNL1        0.0853
      6 C         142.2319  143.9021  160.1052 C.ar    1  UNL1        0.1045
      7 N         143.2266  142.9348  160.6750 N.ar    1  UNL1       -0.2435
      8 C         143.1630  142.5613  162.1264 C.ar    1  UNL1        0.0847
      9 C         144.1577  141.5939  162.6962 C.ar    1  UNL1        0.0488
     10 C         144.0941  141.2205  164.1475 C.ar    1  UNL1        0.1417
     11 F         145.0888  140.2531  164.7174 F       1  UNL1       -0.2041
     12 C         142.8450  140.6941  169.3833 C.ar    1  UNL1        0.0911
     13 C         143.2723  142.0749  168.9822 C.ar    1  UNL1        0.0174
     14 C         143.3359  142.4483  167.5308 C.ar    1  UNL1        0.0052
     15 C         142.9722  141.4411  166.4805 C.ar    1  UNL1        0.0481
     16 C         142.5448  140.0603  166.8816 C.ar    1  UNL1        0.2220
     17 F         142.1811  139.0530  165.8313 F       1  UNL1       -0.1832
     18 N         142.4812  139.6868  168.3330 N.ar    1  UNL1       -0.2199
     19 C         142.7814  140.3207  170.8346 C.3     1  UNL1        0.1876
     20 C         140.5894  141.6810  171.1424 C.3     1  UNL1        0.1747
     21 O         141.7718  140.9715  171.7329 O.3     1  UNL1       -0.3447
     22 C         140.1788  145.4635  160.4169 C.2     1  UNL1        0.2455
     23 N         139.8989  145.4705  158.9432 N.am    1  UNL1       -0.3252
     24 O         139.4641  146.4239  161.3206 O.2     1  UNL1       -0.2703
     25 H         140.3680  144.8402  158.3501 H       1  UNL1        0.1453
     26 H         139.2461  146.1054  158.5692 H       1  UNL1        0.1453
     27 N         140.0516  144.7167  163.3196 N.pl3   1  UNL1       -0.3292
     28 H         140.1430  145.6418  163.6436 H       1  UNL1        0.1471
     29 C         138.8540  143.9010  163.7076 C.3     1  UNL1        0.1117
     30 C         137.9528  144.3699  164.8112 C.3     1  UNL1        0.0278
     31 C         138.5577  142.6164  162.9920 C.ar    1  UNL1        0.0978
     32 C         138.0151  142.4878  161.5995 C.ar    1  UNL1        0.0383
     33 C         137.8740  141.0268  161.2901 C.ar    1  UNL1        0.0964
     34 N         138.3294  140.2525  162.4914 N.ar    1  UNL1       -0.2476
     35 C         138.3574  138.7582  162.6186 C.3     1  UNL1        0.1537
     36 N         138.7519  141.2349  163.5433 N.ar    1  UNL1       -0.1719
@<TRIPOS>BOND
     1    20    21    1
     2    21    19    1
     3    19    12    1
     4    12    13   ar
     5    13    14   ar
     6    14    15   ar
     7    15     1    1
     8     1     2   ar
     9     2     3   ar
    10     3     4   ar
    11     4    27    1
    12    27    29    1
    13    29    30    1
    14    29    31    1
    15    31    32   ar
    16    32    33   ar
    17    33    34   ar
    18    34    35    1
    19    34    36   ar
    20     4     5   ar
    21     5    22    1
    22    22    23   am
    23    22    24    2
    24     5     6   ar
    25     6     7   ar
    26     7     8   ar
    27     8     9   ar
    28     9    10   ar
    29    10    11    1
    30    15    16   ar
    31    16    17    1
    32    16    18   ar
    33    18    12   ar
    34    10     1   ar
    35     8     3   ar
    36    36    31   ar
    37    27    28    1
    38    23    25    1
    39    23    26    1
@<TRIPOS>MOLECULE
*****
 36 39 0 0 0
SMALL
GASTEIGER

@<TRIPOS>ATOM
      1 C         139.9893  139.1484  164.8491 C.ar    1  UNL1        0.0313
      2 C         140.6034  140.0637  163.8318 C.ar    1  UNL1        0.0051
      3 C         140.4501  139.7697  162.3690 C.ar    1  UNL1        0.0311
      4 C         141.0642  140.6852  161.3516 C.ar    1  UNL1        0.0522
      5 C         140.9109  140.3912  159.8887 C.ar    1  UNL1        0.0853
      6 C         140.1435  139.1818  159.4432 C.ar    1  UNL1        0.1045
      7 N         139.5294  138.2664  160.4604 N.ar    1  UNL1       -0.2435
      8 C         139.6827  138.5604  161.9234 C.ar    1  UNL1        0.0847
      9 C         139.0686  137.6450  162.9407 C.ar    1  UNL1        0.0488
     10 C         139.2219  137.9390  164.4036 C.ar    1  UNL1        0.1417
     11 F         138.6078  137.0236  165.4209 F       1  UNL1       -0.2041
     12 C         140.4490  140.0303  169.2379 C.ar    1  UNL1        0.0911
     13 C         141.6613  139.9492  168.3582 C.ar    1  UNL1        0.0174
     14 C         141.5080  139.6552  166.8953 C.ar    1  UNL1        0.0052
     15 C         140.1426  139.4423  166.3121 C.ar    1  UNL1        0.0481
     16 C         138.9303  139.5234  167.1918 C.ar    1  UNL1        0.2220
     17 F         137.5648  139.3105  166.6085 F       1  UNL1       -0.1832
     18 N         139.0835  139.8174  168.6547 N.ar    1  UNL1       -0.2199
     19 C         140.6023  140.3242  170.7008 C.3     1  UNL1        0.1876
     20 C         140.0587  142.8329  170.2993 C.3     1  UNL1        0.1747
     21 O         140.2314  141.6750  171.2372 O.3     1  UNL1       -0.3447
     22 C         141.5250  141.3066  158.8713 C.2     1  UNL1        0.2455
     23 N         140.6572  141.9892  157.8559 N.am    1  UNL1       -0.3252
     24 O         143.0067  141.5393  158.8694 O.2     1  UNL1       -0.2703
     25 H         139.6846  141.8364  157.8572 H       1  UNL1        0.1453
     26 H         141.0602  142.5900  157.1882 H       1  UNL1        0.1453
     27 N         141.8315  141.8945  161.7972 N.pl3   1  UNL1       -0.3292
     28 H         142.7472  141.7959  162.1451 H       1  UNL1        0.1471
     29 C         141.2037  143.2543  161.7126 C.3     1  UNL1        0.1117
     30 C         141.7293  144.2636  160.7355 C.3     1  UNL1        0.0278
     31 C         140.0502  143.6045  162.6053 C.ar    1  UNL1        0.0978
     32 C         138.6019  143.3387  162.3197 C.ar    1  UNL1        0.0383
     33 C         137.7991  143.8520  163.4782 C.ar    1  UNL1        0.0964
     34 N         138.7513  144.4351  164.4798 N.ar    1  UNL1       -0.2476
     35 C         138.3779  145.0612  165.7907 C.3     1  UNL1        0.1537
     36 N         140.1427  144.2822  163.9404 N.ar    1  UNL1       -0.1719
@<TRIPOS>BOND
     1    20    21    1
     2    21    19    1
     3    19    12    1
     4    12    13   ar
     5    13    14   ar
     6    14    15   ar
     7    15     1    1
     8     1     2   ar
     9     2     3   ar
    10     3     4   ar
    11     4    27    1
    12    27    29    1
    13    29    30    1
    14    29    31    1
    15    31    32   ar
    16    32    33   ar
    17    33    34   ar
    18    34    35    1
    19    34    36   ar
    20     4     5   ar
    21     5    22    1
    22    22    23   am
    23    22    24    2
    24     5     6   ar
    25     6     7   ar
    26     7     8   ar
    27     8     9   ar
    28     9    10   ar
    29    10    11    1
    30    15    16   ar
    31    16    17    1
    32    16    18   ar
    33    18    12   ar
    34    10     1   ar
    35     8     3   ar
    36    36    31   ar
    37    27    28    1
    38    23    25    1
    39    23    26    1
@<TRIPOS>MOLECULE
*****
 36 39 0 0 0
SMALL
GASTEIGER

@<TRIPOS>ATOM
      1 C         140.3160  139.2004  164.5828 C.ar    1  UNL1        0.0313
      2 C         139.4986  139.9632  163.5829 C.ar    1  UNL1        0.0051
      3 C         139.6402  139.6701  162.1186 C.ar    1  UNL1        0.0311
      4 C         138.8228  140.4329  161.1186 C.ar    1  UNL1        0.0522
      5 C         138.9644  140.1398  159.6543 C.ar    1  UNL1        0.0853
      6 C         139.9234  139.0840  159.1901 C.ar    1  UNL1        0.1045
      7 N         140.7409  138.3212  160.1901 N.ar    1  UNL1       -0.2435
      8 C         140.5993  138.6143  161.6544 C.ar    1  UNL1        0.0847
      9 C         141.4167  137.8515  162.6544 C.ar    1  UNL1        0.0488
     10 C         141.2751  138.1446  164.1186 C.ar    1  UNL1        0.1417
     11 F         142.0925  137.3818  165.1187 F       1  UNL1       -0.2041
     12 C         139.8912  140.0795  168.9757 C.ar    1  UNL1        0.0911
     13 C         141.1951  140.3400  168.2814 C.ar    1  UNL1        0.0174
     14 C         141.3367  140.0469  166.8171 C.ar    1  UNL1        0.0052
     15 C         140.1744  139.4935  166.0472 C.ar    1  UNL1        0.0481
     16 C         138.8706  139.2330  166.7415 C.ar    1  UNL1        0.2220
     17 F         137.7083  138.6795  165.9715 F       1  UNL1       -0.1832
     18 N         138.7289  139.5260  168.2057 N.ar    1  UNL1       -0.2199
     19 C         139.7496  140.3725  170.4399 C.3     1  UNL1        0.1876
     20 C         139.7881  142.9625  170.6418 C.3     1  UNL1        0.1747
     21 O         140.3473  141.6218  171.0160 O.3     1  UNL1       -0.3447
     22 C         138.1470  140.9025  158.6543 C.2     1  UNL1        0.2455
     23 N         138.5948  142.2596  158.1983 N.am    1  UNL1       -0.3252
     24 O         136.8818  140.3083  158.1102 O.2     1  UNL1       -0.2703
     25 H         139.4252  142.6496  158.5554 H       1  UNL1        0.1453
     26 H         138.0583  142.7602  157.5420 H       1  UNL1        0.1453
     27 N         137.8638  141.4887  161.5828 N.pl3   1  UNL1       -0.3292
     28 H         136.8953  141.3121  161.5741 H       1  UNL1        0.1471
     29 C         138.3804  142.8135  162.0603 C.3     1  UNL1        0.1117
     30 C         137.7113  143.5099  163.2080 C.3     1  UNL1        0.0278
     31 C         139.5661  143.4418  161.3901 C.ar    1  UNL1        0.0978
     32 C         140.9855  143.3818  161.8716 C.ar    1  UNL1        0.0383
     33 C         141.8373  144.1434  160.8997 C.ar    1  UNL1        0.0964
     34 N         140.9444  144.6742  159.8176 N.ar    1  UNL1       -0.2476
     35 C         141.3788  145.4944  158.6393 C.3     1  UNL1        0.1537
     36 N         139.5407  144.2406  160.1206 N.ar    1  UNL1       -0.1719
@<TRIPOS>BOND
     1    20    21    1
     2    21    19    1
     3    19    12    1
     4    12    13   ar
     5    13    14   ar
     6    14    15   ar
     7    15     1    1
     8     1     2   ar
     9     2     3   ar
    10     3     4   ar
    11     4    27    1
    12    27    29    1
    13    29    30    1
    14    29    31    1
    15    31    32   ar
    16    32    33   ar
    17    33    34   ar
    18    34    35    1
    19    34    36   ar
    20     4     5   ar
    21     5    22    1
    22    22    23   am
    23    22    24    2
    24     5     6   ar
    25     6     7   ar
    26     7     8   ar
    27     8     9   ar
    28     9    10   ar
    29    10    11    1
    30    15    16   ar
    31    16    17    1
    32    16    18   ar
    33    18    12   ar
    34    10     1   ar
    35     8     3   ar
    36    36    31   ar
    37    27    28    1
    38    23    25    1
    39    23    26    1
@<TRIPOS>MOLECULE
*****
 36 39 0 0 0
SMALL
GASTEIGER

@<TRIPOS>ATOM
      1 C         139.4745  141.7095  163.3960 C.ar    1  UNL1        0.0313
      2 C         139.9412  141.9218  164.8056 C.ar    1  UNL1        0.0051
      3 C         139.4488  141.0241  165.9018 C.ar    1  UNL1        0.0311
      4 C         139.9155  141.2364  167.3115 C.ar    1  UNL1        0.0522
      5 C         139.4231  140.3387  168.4077 C.ar    1  UNL1        0.0853
      6 C         138.4641  139.2288  168.0943 C.ar    1  UNL1        0.1045
      7 N         137.9974  139.0165  166.6847 N.ar    1  UNL1       -0.2435
      8 C         138.4898  139.9142  165.5884 C.ar    1  UNL1        0.0847
      9 C         138.0231  139.7019  164.1787 C.ar    1  UNL1        0.0488
     10 C         138.5155  140.5996  163.0825 C.ar    1  UNL1        0.1417
     11 F         138.0488  140.3873  161.6728 F       1  UNL1       -0.2041
     12 C         140.9515  144.4026  160.1071 C.ar    1  UNL1        0.0911
     13 C         141.8864  143.4209  160.7493 C.ar    1  UNL1        0.0174
     14 C         141.3940  142.5232  161.8456 C.ar    1  UNL1        0.0052
     15 C         139.9669  142.6072  162.2997 C.ar    1  UNL1        0.0481
     16 C         139.0320  143.5889  161.6575 C.ar    1  UNL1        0.2220
     17 F         137.6049  143.6729  162.1116 F       1  UNL1       -0.1832
     18 N         139.5243  144.4866  160.5612 N.ar    1  UNL1       -0.2199
     19 C         141.4438  145.3003  159.0109 C.3     1  UNL1        0.1876
     20 C         139.9567  145.2257  156.8818 C.3     1  UNL1        0.1747
     21 O         140.4649  145.9612  158.0863 O.3     1  UNL1       -0.3447
     22 C         139.8898  140.5510  169.8174 C.2     1  UNL1        0.2455
     23 N         140.6833  139.4851  170.5133 N.am    1  UNL1       -0.3252
     24 O         139.5630  141.8291  170.5312 O.2     1  UNL1       -0.2703
     25 H         140.8978  138.6462  170.0448 H       1  UNL1        0.1453
     26 H         140.9896  139.6243  171.4385 H       1  UNL1        0.1453
     27 N         140.8745  142.3463  167.6249 N.pl3   1  UNL1       -0.3292
     28 H         140.5366  143.2548  167.7975 H       1  UNL1        0.1471
     29 C         142.3484  142.0721  167.6755 C.3     1  UNL1        0.1117
     30 C         143.1025  142.2590  168.9585 C.3     1  UNL1        0.0278
     31 C         143.0682  141.6110  166.4428 C.ar    1  UNL1        0.0978
     32 C         143.1374  140.2002  165.9381 C.ar    1  UNL1        0.0383
     33 C         143.9570  140.1970  164.6818 C.ar    1  UNL1        0.0964
     34 N         144.3945  141.6058  164.4102 N.ar    1  UNL1       -0.2476
     35 C         145.2339  142.0609  163.2533 C.3     1  UNL1        0.1537
     36 N         143.8452  142.4798  165.4985 N.ar    1  UNL1       -0.1719
@<TRIPOS>BOND
     1    20    21    1
     2    21    19    1
     3    19    12    1
     4    12    13   ar
     5    13    14   ar
     6    14    15   ar
     7    15     1    1
     8     1     2   ar
     9     2     3   ar
    10     3     4   ar
    11     4    27    1
    12    27    29    1
    13    29    30    1
    14    29    31    1
    15    31    32   ar
    16    32    33   ar
    17    33    34   ar
    18    34    35    1
    19    34    36   ar
    20     4     5   ar
    21     5    22    1
    22    22    23   am
    23    22    24    2
    24     5     6   ar
    25     6     7   ar
    26     7     8   ar
    27     8     9   ar
    28     9    10   ar
    29    10    11    1
    30    15    16   ar
    31    16    17    1
    32    16    18   ar
    33    18    12   ar
    34    10     1   ar
    35     8     3   ar
    36    36    31   ar
    37    27    28    1
    38    23    25    1
    39    23    26    1
@<TRIPOS>MOLECULE
*****
 36 39 0 0 0
SMALL
GASTEIGER

@<TRIPOS>ATOM
      1 C         142.9393  140.5795  165.6165 C.ar    1  UNL1        0.0313
      2 C         142.4531  141.5807  164.6110 C.ar    1  UNL1        0.0051
      3 C         142.7839  141.4060  163.1584 C.ar    1  UNL1        0.0311
      4 C         142.2977  142.4073  162.1528 C.ar    1  UNL1        0.0522
      5 C         142.6284  142.2327  160.7002 C.ar    1  UNL1        0.0853
      6 C         143.4453  141.0567  160.2531 C.ar    1  UNL1        0.1045
      7 N         143.9315  140.0555  161.2586 N.ar    1  UNL1       -0.2435
      8 C         143.6008  140.2301  162.7113 C.ar    1  UNL1        0.0847
      9 C         144.0870  139.2289  163.7168 C.ar    1  UNL1        0.0488
     10 C         143.7562  139.4035  165.1694 C.ar    1  UNL1        0.1417
     11 F         144.2424  138.4023  166.1750 F       1  UNL1       -0.2041
     12 C         141.9473  141.1034  169.9745 C.ar    1  UNL1        0.0911
     13 C         141.4197  139.9175  169.2225 C.ar    1  UNL1        0.0174
     14 C         141.7504  139.7429  167.7698 C.ar    1  UNL1        0.0052
     15 C         142.6086  140.7541  167.0692 C.ar    1  UNL1        0.0481
     16 C         143.1362  141.9399  167.8211 C.ar    1  UNL1        0.2220
     17 F         143.9944  142.9512  167.1204 F       1  UNL1       -0.1832
     18 N         142.8055  142.1146  169.2737 N.ar    1  UNL1       -0.2199
     19 C         141.6166  141.2780  171.4271 C.3     1  UNL1        0.1876
     20 C         139.6957  142.9093  170.7952 C.3     1  UNL1        0.1747
     21 O         140.5137  142.2076  171.8386 O.3     1  UNL1       -0.3447
     22 C         142.1422  143.2339  159.6946 C.2     1  UNL1        0.2455
     23 N         141.5601  142.7678  158.3931 N.am    1  UNL1       -0.3252
     24 O         142.2380  144.7013  159.9906 O.2     1  UNL1       -0.2703
     25 H         141.4972  141.8047  158.1989 H       1  UNL1        0.1453
     26 H         141.2410  143.4249  157.7331 H       1  UNL1        0.1453
     27 N         141.4807  143.5832  162.5999 N.pl3   1  UNL1       -0.3292
     28 H         141.9277  144.4002  162.9193 H       1  UNL1        0.1471
     29 C         139.9828  143.5143  162.5604 C.3     1  UNL1        0.1117
     30 C         139.1817  144.7544  162.2951 C.3     1  UNL1        0.0278
     31 C         139.2860  142.2053  162.7862 C.ar    1  UNL1        0.0978
     32 C         138.7751  141.6936  164.1003 C.ar    1  UNL1        0.0383
     33 C         138.1511  140.3502  163.8638 C.ar    1  UNL1        0.0964
     34 N         138.2765  140.0316  162.4034 N.ar    1  UNL1       -0.2476
     35 C         137.7864  138.7853  161.7276 C.3     1  UNL1        0.1537
     36 N         138.9779  141.1781  161.7373 N.ar    1  UNL1       -0.1719
@<TRIPOS>BOND
     1    20    21    1
     2    21    19    1
     3    19    12    1
     4    12    13   ar
     5    13    14   ar
     6    14    15   ar
     7    15     1    1
     8     1     2   ar
     9     2     3   ar
    10     3     4   ar
    11     4    27    1
    12    27    29    1
    13    29    30    1
    14    29    31    1
    15    31    32   ar
    16    32    33   ar
    17    33    34   ar
    18    34    35    1
    19    34    36   ar
    20     4     5   ar
    21     5    22    1
    22    22    23   am
    23    22    24    2
    24     5     6   ar
    25     6     7   ar
    26     7     8   ar
    27     8     9   ar
    28     9    10   ar
    29    10    11    1
    30    15    16   ar
    31    16    17    1
    32    16    18   ar
    33    18    12   ar
    34    10     1   ar
    35     8     3   ar
    36    36    31   ar
    37    27    28    1
    38    23    25    1
    39    23    26    1
@<TRIPOS>MOLECULE
*****
 36 39 0 0 0
SMALL
GASTEIGER

@<TRIPOS>ATOM
      1 C         140.8709  141.6612  167.7156 C.ar    1  UNL1        0.0313
      2 C         140.5975  142.3243  166.3982 C.ar    1  UNL1        0.0051
      3 C         139.6825  141.6709  165.4054 C.ar    1  UNL1        0.0311
      4 C         139.4090  142.3340  164.0879 C.ar    1  UNL1        0.0522
      5 C         138.4940  141.6807  163.0950 C.ar    1  UNL1        0.0853
      6 C         137.8524  140.3643  163.4196 C.ar    1  UNL1        0.1045
      7 N         138.1257  139.7012  164.7369 N.ar    1  UNL1       -0.2435
      8 C         139.0408  140.3545  165.7299 C.ar    1  UNL1        0.0847
      9 C         139.3142  139.6915  167.0473 C.ar    1  UNL1        0.0488
     10 C         140.2292  140.3448  168.0401 C.ar    1  UNL1        0.1417
     11 F         140.5026  139.6817  169.3576 F       1  UNL1       -0.2041
     12 C         143.6160  143.6213  170.6944 C.ar    1  UNL1        0.0911
     13 C         144.1368  142.5432  169.7908 C.ar    1  UNL1        0.0174
     14 C         143.2217  141.8899  168.7978 C.ar    1  UNL1        0.0052
     15 C         141.7859  142.3146  168.7086 C.ar    1  UNL1        0.0481
     16 C         141.2651  143.3926  169.6122 C.ar    1  UNL1        0.2220
     17 F         139.8292  143.8174  169.5228 F       1  UNL1       -0.1832
     18 N         142.1801  144.0460  170.6051 N.ar    1  UNL1       -0.2199
     19 C         144.5310  144.2746  171.6873 C.3     1  UNL1        0.1876
     20 C         147.0172  144.6340  171.0244 C.3     1  UNL1        0.1747
     21 O         145.6314  145.1766  171.2126 O.3     1  UNL1       -0.3447
     22 C         138.2206  142.3437  161.7776 C.2     1  UNL1        0.2455
     23 N         138.3120  141.5525  160.5065 N.am    1  UNL1       -0.3252
     24 O         137.8558  143.7979  161.7312 O.2     1  UNL1       -0.2703
     25 H         138.5514  140.5981  160.5369 H       1  UNL1        0.1453
     26 H         138.1325  141.9877  159.6418 H       1  UNL1        0.1453
     27 N         140.0507  143.6504  163.7634 N.pl3   1  UNL1       -0.3292
     28 H         139.6372  144.4889  164.0718 H       1  UNL1        0.1471
     29 C         141.3224  143.6893  162.9688 C.3     1  UNL1        0.1117
     30 C         141.3538  144.3781  161.6367 C.3     1  UNL1        0.0278
     31 C         142.5628  143.0393  163.5064 C.ar    1  UNL1        0.0978
     32 C         143.6456  143.7193  164.2906 C.ar    1  UNL1        0.0383
     33 C         144.6901  142.6954  164.6230 C.ar    1  UNL1        0.0964
     34 N         144.2529  141.3825  164.0442 N.ar    1  UNL1       -0.2476
     35 C         144.9994  140.0849  164.1389 C.3     1  UNL1        0.1537
     36 N         142.9381  141.5949  163.3540 N.ar    1  UNL1       -0.1719
@<TRIPOS>BOND
     1    20    21    1
     2    21    19    1
     3    19    12    1
     4    12    13   ar
     5    13    14   ar
     6    14    15   ar
     7    15     1    1
     8     1     2   ar
     9     2     3   ar
    10     3     4   ar
    11     4    27    1
    12    27    29    1
    13    29    30    1
    14    29    31    1
    15    31    32   ar
    16    32    33   ar
    17    33    34   ar
    18    34    35    1
    19    34    36   ar
    20     4     5   ar
    21     5    22    1
    22    22    23   am
    23    22    24    2
    24     5     6   ar
    25     6     7   ar
    26     7     8   ar
    27     8     9   ar
    28     9    10   ar
    29    10    11    1
    30    15    16   ar
    31    16    17    1
    32    16    18   ar
    33    18    12   ar
    34    10     1   ar
    35     8     3   ar
    36    36    31   ar
    37    27    28    1
    38    23    25    1
    39    23    26    1
@<TRIPOS>MOLECULE
*****
 36 39 0 0 0
SMALL
GASTEIGER

@<TRIPOS>ATOM
      1 C         140.4327  139.2561  165.5358 C.ar    1  UNL1        0.0313
      2 C         141.3232  139.7734  164.4452 C.ar    1  UNL1        0.0051
      3 C         141.0855  139.3594  163.0233 C.ar    1  UNL1        0.0311
      4 C         141.9759  139.8767  161.9326 C.ar    1  UNL1        0.0522
      5 C         141.7383  139.4627  160.5106 C.ar    1  UNL1        0.0853
      6 C         140.6101  138.5313  160.1793 C.ar    1  UNL1        0.1045
      7 N         139.7197  138.0139  161.2699 N.ar    1  UNL1       -0.2435
      8 C         139.9573  138.4280  162.6919 C.ar    1  UNL1        0.0847
      9 C         139.0669  137.9107  163.7825 C.ar    1  UNL1        0.0488
     10 C         139.3046  138.3247  165.2044 C.ar    1  UNL1        0.1417
     11 F         138.4141  137.8074  166.2951 F       1  UNL1       -0.2041
     12 C         141.1458  140.4982  169.8019 C.ar    1  UNL1        0.0911
     13 C         139.8257  140.7822  169.1487 C.ar    1  UNL1        0.0174
     14 C         139.5880  140.3682  167.7267 C.ar    1  UNL1        0.0052
     15 C         140.6704  139.6702  166.9579 C.ar    1  UNL1        0.0481
     16 C         141.9905  139.3861  167.6111 C.ar    1  UNL1        0.2220
     17 F         143.0729  138.6881  166.8422 F       1  UNL1       -0.1832
     18 N         142.2282  139.8002  169.0330 N.ar    1  UNL1       -0.2199
     19 C         141.3835  140.9122  171.2239 C.3     1  UNL1        0.1876
     20 C         142.6650  143.0500  170.4906 C.3     1  UNL1        0.1747
     21 O         141.8945  142.2891  171.5286 O.3     1  UNL1       -0.3447
     22 C         142.6287  139.9800  159.4200 C.2     1  UNL1        0.2455
     23 N         142.0608  140.8483  158.3367 N.am    1  UNL1       -0.3252
     24 O         144.0870  139.6290  159.4126 O.2     1  UNL1       -0.2703
     25 H         141.1036  141.0787  158.3415 H       1  UNL1        0.1453
     26 H         142.6452  141.1879  157.6209 H       1  UNL1        0.1453
     27 N         143.1041  140.8081  162.2640 N.pl3   1  UNL1       -0.3292
     28 H         143.9599  140.4479  162.5912 H       1  UNL1        0.1471
     29 C         142.9282  142.2884  162.0968 C.3     1  UNL1        0.1117
     30 C         143.8901  143.0670  161.2492 C.3     1  UNL1        0.0278
     31 C         141.7905  142.9901  162.7774 C.ar    1  UNL1        0.0978
     32 C         141.7914  143.5128  164.1834 C.ar    1  UNL1        0.0383
     33 C         140.4535  144.1380  164.4464 C.ar    1  UNL1        0.0964
     34 N         139.6257  144.0017  163.2029 N.ar    1  UNL1       -0.2476
     35 C         138.2187  144.4893  163.0226 C.3     1  UNL1        0.1537
     36 N         140.4520  143.2923  162.1714 N.ar    1  UNL1       -0.1719
@<TRIPOS>BOND
     1    20    21    1
     2    21    19    1
     3    19    12    1
     4    12    13   ar
     5    13    14   ar
     6    14    15   ar
     7    15     1    1
     8     1     2   ar
     9     2     3   ar
    10     3     4   ar
    11     4    27    1
    12    27    29    1
    13    29    30    1
    14    29    31    1
    15    31    32   ar
    16    32    33   ar
    17    33    34   ar
    18    34    35    1
    19    34    36   ar
    20     4     5   ar
    21     5    22    1
    22    22    23   am
    23    22    24    2
    24     5     6   ar
    25     6     7   ar
    26     7     8   ar
    27     8     9   ar
    28     9    10   ar
    29    10    11    1
    30    15    16   ar
    31    16    17    1
    32    16    18   ar
    33    18    12   ar
    34    10     1   ar
    35     8     3   ar
    36    36    31   ar
    37    27    28    1
    38    23    25    1
    39    23    26    1
