@<TRIPOS>MOLECULE
*****
 32 36 0 0 0
SMALL
GASTEIGER

@<TRIPOS>ATOM
      1 C         139.9556  145.5138  157.4647 C.ar    1  UNL1        0.0213
      2 C         139.5852  144.1088  157.0921 C.ar    1  UNL1        0.1006
      3 N         139.7085  143.0076  158.1031 N.ar    1  UNL1       -0.2246
      4 C         140.2021  143.3113  159.4866 C.ar    1  UNL1        0.1702
      5 N         140.4263  142.4392  160.6862 N.ar    1  UNL1       -0.2052
      6 C         140.9353  143.3052  161.8002 C.ar    1  UNL1        0.1647
      7 S         141.0256  144.7125  161.2890 S.2     1  UNL1       -0.0499
      8 C         140.5724  144.7163  159.8591 C.ar    1  UNL1        0.0679
      9 C         140.4492  145.8175  158.8482 C.ar    1  UNL1        0.0112
     10 C         139.5858  148.8178  154.4319 C.ar    1  UNL1        0.1342
     11 C         140.4720  147.6400  154.1536 C.ar    1  UNL1        0.0345
     12 C         140.5952  146.5386  155.1646 C.ar    1  UNL1        0.0045
     13 C         139.8323  146.6151  156.4537 C.ar    1  UNL1        0.0208
     14 C         138.9461  147.7929  156.7321 C.ar    1  UNL1        0.1003
     15 N         138.8229  148.8942  155.7212 N.ar    1  UNL1       -0.2290
     16 C         139.9829  152.3506  152.6679 C.3     1  UNL1        0.0950
     17 C         140.1061  151.2492  153.6788 C.2     1  UNL1        0.2277
     18 O         140.8730  151.4780  154.9475 O.2     1  UNL1       -0.2747
     19 N         139.4625  149.9191  153.4210 N.am    1  UNL1       -0.2693
     20 H         138.9592  149.7689  152.5884 H       1  UNL1        0.1563
     21 N         141.2915  142.8447  163.1827 N.pl3   1  UNL1       -0.2880
     22 C         142.4738  141.9458  163.3925 C.3     1  UNL1        0.0940
     23 C         142.8300  141.4854  164.7749 C.3     1  UNL1        0.0375
     24 C         142.0038  141.9238  165.9475 C.3     1  UNL1        0.0609
     25 C         140.8215  142.8227  165.7377 C.3     1  UNL1        0.0375
     26 C         140.4653  143.2832  164.3553 C.3     1  UNL1        0.0940
     27 N         142.3600  141.4634  167.3300 N.3     1  UNL1       -0.2738
     28 C         143.0814  142.3875  168.2657 C.3     1  UNL1        0.0720
     29 C         143.4375  141.9271  169.6481 C.3     1  UNL1        0.0174
     30 C         143.0723  140.5426  170.0948 C.3     1  UNL1        0.0029
     31 C         142.3509  139.6185  169.1592 C.3     1  UNL1        0.0174
     32 C         141.9948  140.0788  167.7767 C.3     1  UNL1        0.0720
@<TRIPOS>BOND
     1    16    17    1
     2    17    18    2
     3    17    19   am
     4    19    10    1
     5    10    11   ar
     6    11    12   ar
     7    12    13   ar
     8    13     1    1
     9     1     2   ar
    10     2     3   ar
    11     3     4   ar
    12     4     5   ar
    13     5     6   ar
    14     6    21    1
    15    21    22    1
    16    22    23    1
    17    23    24    1
    18    24    27    1
    19    27    28    1
    20    28    29    1
    21    29    30    1
    22    30    31    1
    23    31    32    1
    24    24    25    1
    25    25    26    1
    26     6     7   ar
    27     7     8   ar
    28     8     9   ar
    29    13    14   ar
    30    14    15   ar
    31    15    10   ar
    32     9     1   ar
    33     8     4   ar
    34    26    21    1
    35    32    27    1
    36    19    20    1
@<TRIPOS>MOLECULE
*****
 32 36 0 0 0
SMALL
GASTEIGER

@<TRIPOS>ATOM
      1 C         139.7253  139.9990  167.1580 C.ar    1  UNL1        0.0213
      2 C         140.8050  140.9854  167.4916 C.ar    1  UNL1        0.1006
      3 N         141.7990  141.3918  166.4444 N.ar    1  UNL1       -0.2246
      4 C         141.7134  140.8119  165.0637 C.ar    1  UNL1        0.1702
      5 N         142.5459  141.0216  163.8336 N.ar    1  UNL1       -0.2052
      6 C         141.9807  140.1647  162.7399 C.ar    1  UNL1        0.1647
      7 S         140.7989  139.4256  163.2940 S.2     1  UNL1       -0.0499
      8 C         140.6337  139.8256  164.7302 C.ar    1  UNL1        0.0679
      9 C         139.6397  139.4191  165.7773 C.ar    1  UNL1        0.0112
     10 C         136.7430  138.7795  170.2996 C.ar    1  UNL1        0.1342
     11 C         136.6444  138.2160  168.9130 C.ar    1  UNL1        0.0345
     12 C         137.6385  138.6225  167.8658 C.ar    1  UNL1        0.0045
     13 C         138.7312  139.5925  168.2052 C.ar    1  UNL1        0.0208
     14 C         138.8298  140.1559  169.5919 C.ar    1  UNL1        0.1003
     15 N         137.8358  139.7495  170.6391 N.ar    1  UNL1       -0.2290
     16 C         135.0462  136.8011  173.2924 C.3     1  UNL1        0.0950
     17 C         136.0402  137.2077  172.2451 C.2     1  UNL1        0.2277
     18 O         137.3255  136.4488  172.0963 O.2     1  UNL1       -0.2747
     19 N         135.7490  138.3730  171.3468 N.am    1  UNL1       -0.2693
     20 H         134.9054  138.8711  171.4445 H       1  UNL1        0.1563
     21 N         142.5051  140.0646  161.3380 N.pl3   1  UNL1       -0.2880
     22 C         143.1746  141.2464  160.7015 C.3     1  UNL1        0.0940
     23 C         143.6990  141.1464  159.2998 C.3     1  UNL1        0.0375
     24 C         143.5541  139.8644  158.5346 C.3     1  UNL1        0.0609
     25 C         142.8846  138.6826  159.1711 C.3     1  UNL1        0.0375
     26 C         142.3602  138.7827  160.5728 C.3     1  UNL1        0.0940
     27 N         144.0785  139.7643  157.1328 N.3     1  UNL1       -0.2738
     28 C         145.1829  140.6721  156.6786 C.3     1  UNL1        0.0720
     29 C         145.7074  140.5720  155.2769 C.3     1  UNL1        0.0174
     30 C         145.1275  139.5641  154.3294 C.3     1  UNL1        0.0029
     31 C         144.0231  138.6563  154.7836 C.3     1  UNL1        0.0174
     32 C         143.4986  138.7564  156.1853 C.3     1  UNL1        0.0720
@<TRIPOS>BOND
     1    16    17    1
     2    17    18    2
     3    17    19   am
     4    19    10    1
     5    10    11   ar
     6    11    12   ar
     7    12    13   ar
     8    13     1    1
     9     1     2   ar
    10     2     3   ar
    11     3     4   ar
    12     4     5   ar
    13     5     6   ar
    14     6    21    1
    15    21    22    1
    16    22    23    1
    17    23    24    1
    18    24    27    1
    19    27    28    1
    20    28    29    1
    21    29    30    1
    22    30    31    1
    23    31    32    1
    24    24    25    1
    25    25    26    1
    26     6     7   ar
    27     7     8   ar
    28     8     9   ar
    29    13    14   ar
    30    14    15   ar
    31    15    10   ar
    32     9     1   ar
    33     8     4   ar
    34    26    21    1
    35    32    27    1
    36    19    20    1
@<TRIPOS>MOLECULE
*****
 32 36 0 0 0
SMALL
GASTEIGER

@<TRIPOS>ATOM
      1 C         139.0277  142.7817  156.3874 C.ar    1  UNL1        0.0213
      2 C         137.8118  142.1144  156.9586 C.ar    1  UNL1        0.1006
      3 N         137.7916  140.6264  157.1467 N.ar    1  UNL1       -0.2246
      4 C         138.9873  139.8057  156.7636 C.ar    1  UNL1        0.1702
      5 N         139.2569  138.3317  156.8331 N.ar    1  UNL1       -0.2052
      6 C         140.6395  138.0881  156.3048 C.ar    1  UNL1        0.1647
      7 S         141.2243  139.4114  155.9088 S.2     1  UNL1       -0.0499
      8 C         140.2032  140.4730  156.1924 C.ar    1  UNL1        0.0679
      9 C         140.2234  141.9609  156.0042 C.ar    1  UNL1        0.0112
     10 C         139.0885  147.2458  155.8229 C.ar    1  UNL1        0.1342
     11 C         138.1534  146.3998  155.0106 C.ar    1  UNL1        0.0345
     12 C         138.1331  144.9117  155.1988 C.ar    1  UNL1        0.0045
     13 C         139.0480  144.2697  156.1992 C.ar    1  UNL1        0.0208
     14 C         139.9831  145.1157  157.0115 C.ar    1  UNL1        0.1003
     15 N         140.0034  146.6037  156.8234 N.ar    1  UNL1       -0.2290
     16 C         138.6354  151.1228  156.5397 C.3     1  UNL1        0.0950
     17 C         138.6151  149.6347  156.7278 C.2     1  UNL1        0.2277
     18 O         138.1011  149.0476  158.0088 O.2     1  UNL1       -0.2747
     19 N         139.1088  148.7338  155.6348 N.am    1  UNL1       -0.2693
     20 H         139.4462  149.1191  154.7940 H       1  UNL1        0.1563
     21 N         141.3182  136.7551  156.1922 N.pl3   1  UNL1       -0.2880
     22 C         142.5170  136.4499  157.0405 C.3     1  UNL1        0.0940
     23 C         143.1957  135.1170  156.9279 C.3     1  UNL1        0.0375
     24 C         142.6755  134.0893  155.9671 C.3     1  UNL1        0.0609
     25 C         141.4767  134.3945  155.1189 C.3     1  UNL1        0.0375
     26 C         140.7980  135.7274  155.2314 C.3     1  UNL1        0.0940
     27 N         143.3542  132.7563  155.8545 N.3     1  UNL1       -0.2738
     28 C         144.1103  132.1985  157.0238 C.3     1  UNL1        0.0720
     29 C         144.7889  130.8656  156.9113 C.3     1  UNL1        0.0174
     30 C         144.7115  130.0904  155.6295 C.3     1  UNL1        0.0029
     31 C         143.9555  130.6482  154.4602 C.3     1  UNL1        0.0174
     32 C         143.2768  131.9811  154.5727 C.3     1  UNL1        0.0720
@<TRIPOS>BOND
     1    16    17    1
     2    17    18    2
     3    17    19   am
     4    19    10    1
     5    10    11   ar
     6    11    12   ar
     7    12    13   ar
     8    13     1    1
     9     1     2   ar
    10     2     3   ar
    11     3     4   ar
    12     4     5   ar
    13     5     6   ar
    14     6    21    1
    15    21    22    1
    16    22    23    1
    17    23    24    1
    18    24    27    1
    19    27    28    1
    20    28    29    1
    21    29    30    1
    22    30    31    1
    23    31    32    1
    24    24    25    1
    25    25    26    1
    26     6     7   ar
    27     7     8   ar
    28     8     9   ar
    29    13    14   ar
    30    14    15   ar
    31    15    10   ar
    32     9     1   ar
    33     8     4   ar
    34    26    21    1
    35    32    27    1
    36    19    20    1
@<TRIPOS>MOLECULE
*****
 32 36 0 0 0
SMALL
GASTEIGER

@<TRIPOS>ATOM
      1 C         139.2570  139.3524  166.4541 C.ar    1  UNL1        0.0213
      2 C         140.4625  140.2450  166.4546 C.ar    1  UNL1        0.1006
      3 N         141.2672  140.4192  165.2008 N.ar    1  UNL1       -0.2246
      4 C         140.8665  139.7007  163.9465 C.ar    1  UNL1        0.1702
      5 N         141.4609  139.6777  162.5695 N.ar    1  UNL1       -0.2052
      6 C         140.6228  138.7708  161.7179 C.ar    1  UNL1        0.1647
      7 S         139.5104  138.2334  162.5687 S.2     1  UNL1       -0.0499
      8 C         139.6610  138.8081  163.9460 C.ar    1  UNL1        0.0679
      9 C         138.8563  138.6339  165.1998 C.ar    1  UNL1        0.0112
     10 C         136.8426  138.8299  170.2155 C.ar    1  UNL1        0.1342
     11 C         136.4536  138.0958  168.9666 C.ar    1  UNL1        0.0345
     12 C         137.2585  138.2700  167.7128 C.ar    1  UNL1        0.0045
     13 C         138.4522  139.1782  167.7079 C.ar    1  UNL1        0.0208
     14 C         138.8412  139.9123  168.9568 C.ar    1  UNL1        0.1003
     15 N         138.0364  139.7382  170.2106 N.ar    1  UNL1       -0.2290
     16 C         135.3787  137.2321  173.5402 C.3     1  UNL1        0.0950
     17 C         136.1835  137.4063  172.2864 C.2     1  UNL1        0.2277
     18 O         137.1338  136.3310  171.8497 O.2     1  UNL1       -0.2747
     19 N         136.0379  138.6557  171.4693 N.am    1  UNL1       -0.2693
     20 H         135.4142  139.3615  171.7559 H       1  UNL1        0.1563
     21 N         140.8561  138.4566  160.2698 N.pl3   1  UNL1       -0.2880
     22 C         139.7218  138.5408  159.2920 C.3     1  UNL1        0.0940
     23 C         139.9550  138.2266  157.8439 C.3     1  UNL1        0.0375
     24 C         141.3225  137.8281  157.3738 C.3     1  UNL1        0.0609
     25 C         142.4568  137.7438  158.3517 C.3     1  UNL1        0.0375
     26 C         142.2236  138.0581  159.7997 C.3     1  UNL1        0.0940
     27 N         141.5557  137.5138  155.9257 N.3     1  UNL1       -0.2738
     28 C         141.1138  138.4809  154.8677 C.3     1  UNL1        0.0720
     29 C         141.3470  138.1667  153.4197 C.3     1  UNL1        0.0174
     30 C         142.0222  136.8853  153.0297 C.3     1  UNL1        0.0029
     31 C         142.4641  135.9182  154.0876 C.3     1  UNL1        0.0174
     32 C         142.2309  136.2324  155.5357 C.3     1  UNL1        0.0720
@<TRIPOS>BOND
     1    16    17    1
     2    17    18    2
     3    17    19   am
     4    19    10    1
     5    10    11   ar
     6    11    12   ar
     7    12    13   ar
     8    13     1    1
     9     1     2   ar
    10     2     3   ar
    11     3     4   ar
    12     4     5   ar
    13     5     6   ar
    14     6    21    1
    15    21    22    1
    16    22    23    1
    17    23    24    1
    18    24    27    1
    19    27    28    1
    20    28    29    1
    21    29    30    1
    22    30    31    1
    23    31    32    1
    24    24    25    1
    25    25    26    1
    26     6     7   ar
    27     7     8   ar
    28     8     9   ar
    29    13    14   ar
    30    14    15   ar
    31    15    10   ar
    32     9     1   ar
    33     8     4   ar
    34    26    21    1
    35    32    27    1
    36    19    20    1
@<TRIPOS>MOLECULE
*****
 32 36 0 0 0
SMALL
GASTEIGER

@<TRIPOS>ATOM
      1 C         143.4500  140.1466  163.8508 C.ar    1  UNL1        0.0213
      2 C         144.5229  140.8734  163.0955 C.ar    1  UNL1        0.1006
      3 N         144.7502  140.5761  161.6430 N.ar    1  UNL1       -0.2246
      4 C         143.9046  139.5519  160.9458 C.ar    1  UNL1        0.1702
      5 N         143.8966  139.0508  159.5319 N.ar    1  UNL1       -0.2052
      6 C         142.8188  138.0144  159.4135 C.ar    1  UNL1        0.1647
      7 S         142.1607  137.8748  160.7542 S.2     1  UNL1       -0.0499
      8 C         142.8317  138.8251  161.7012 C.ar    1  UNL1        0.0679
      9 C         142.6044  139.1225  163.1537 C.ar    1  UNL1        0.0112
     10 C         142.7680  141.0388  168.2085 C.ar    1  UNL1        0.1342
     11 C         142.6721  139.6281  167.7079 C.ar    1  UNL1        0.0345
     12 C         142.8994  139.3307  166.2553 C.ar    1  UNL1        0.0045
     13 C         143.2226  140.4440  165.3034 C.ar    1  UNL1        0.0208
     14 C         143.3185  141.8547  165.8041 C.ar    1  UNL1        0.1003
     15 N         143.0912  142.1521  167.2566 N.ar    1  UNL1       -0.2290
     16 C         140.9502  142.0376  171.5921 C.3     1  UNL1        0.0950
     17 C         141.1776  141.7402  170.1395 C.2     1  UNL1        0.2277
     18 O         140.0419  141.8468  169.1654 O.2     1  UNL1       -0.2747
     19 N         142.5406  141.3362  169.6611 N.am    1  UNL1       -0.2693
     20 H         143.2860  141.2662  170.3004 H       1  UNL1        0.1563
     21 N         142.4618  137.2513  158.1724 N.pl3   1  UNL1       -0.2880
     22 C         141.4177  137.7860  157.2376 C.3     1  UNL1        0.0940
     23 C         141.0606  137.0230  155.9965 C.3     1  UNL1        0.0375
     24 C         141.7478  135.7254  155.6902 C.3     1  UNL1        0.0609
     25 C         142.7920  135.1907  156.6250 C.3     1  UNL1        0.0375
     26 C         143.1490  135.9537  157.8661 C.3     1  UNL1        0.0940
     27 N         141.3908  134.9623  154.4490 N.3     1  UNL1       -0.2738
     28 C         141.7693  133.5164  154.3227 C.3     1  UNL1        0.0720
     29 C         141.4124  132.7533  153.0816 C.3     1  UNL1        0.0174
     30 C         140.6769  133.4362  151.9669 C.3     1  UNL1        0.0029
     31 C         140.2983  134.8822  152.0933 C.3     1  UNL1        0.0174
     32 C         140.6553  135.6452  153.3343 C.3     1  UNL1        0.0720
@<TRIPOS>BOND
     1    16    17    1
     2    17    18    2
     3    17    19   am
     4    19    10    1
     5    10    11   ar
     6    11    12   ar
     7    12    13   ar
     8    13     1    1
     9     1     2   ar
    10     2     3   ar
    11     3     4   ar
    12     4     5   ar
    13     5     6   ar
    14     6    21    1
    15    21    22    1
    16    22    23    1
    17    23    24    1
    18    24    27    1
    19    27    28    1
    20    28    29    1
    21    29    30    1
    22    30    31    1
    23    31    32    1
    24    24    25    1
    25    25    26    1
    26     6     7   ar
    27     7     8   ar
    28     8     9   ar
    29    13    14   ar
    30    14    15   ar
    31    15    10   ar
    32     9     1   ar
    33     8     4   ar
    34    26    21    1
    35    32    27    1
    36    19    20    1
@<TRIPOS>MOLECULE
*****
 32 36 0 0 0
SMALL
GASTEIGER

@<TRIPOS>ATOM
      1 C         142.7280  137.9698  157.5076 C.ar    1  UNL1        0.0213
      2 C         143.2417  139.3128  157.0802 C.ar    1  UNL1        0.1006
      3 N         143.3758  140.4188  158.0845 N.ar    1  UNL1       -0.2246
      4 C         142.9962  140.1819  159.5163 C.ar    1  UNL1        0.1702
      5 N         143.0202  141.0741  160.7218 N.ar    1  UNL1       -0.2052
      6 C         142.5214  140.2826  161.8943 C.ar    1  UNL1        0.1647
      7 S         142.1892  138.9012  161.4133 S.2     1  UNL1       -0.0499
      8 C         142.4826  138.8389  159.9437 C.ar    1  UNL1        0.0679
      9 C         142.3485  137.7329  158.9393 C.ar    1  UNL1        0.0112
     10 C         142.3257  134.6516  154.4946 C.ar    1  UNL1        0.1342
     11 C         141.1137  135.4211  154.9291 C.ar    1  UNL1        0.0345
     12 C         141.2478  136.5272  155.9335 C.ar    1  UNL1        0.0045
     13 C         142.5939  136.8638  156.5032 C.ar    1  UNL1        0.0208
     14 C         143.8060  136.0943  156.0687 C.ar    1  UNL1        0.1003
     15 N         143.6719  134.9882  155.0644 N.ar    1  UNL1       -0.2290
     16 C         141.7156  131.0514  152.9402 C.3     1  UNL1        0.0950
     17 C         141.8497  132.1575  153.9445 C.2     1  UNL1        0.2277
     18 O         141.6418  131.8756  155.4030 O.2     1  UNL1       -0.2747
     19 N         142.1917  133.5456  153.4903 N.am    1  UNL1       -0.2693
     20 H         142.3281  133.7307  152.5330 H       1  UNL1        0.1563
     21 N         142.3797  140.7844  163.3008 N.pl3   1  UNL1       -0.2880
     22 C         142.8337  139.9337  164.4499 C.3     1  UNL1        0.0940
     23 C         142.6920  140.4354  165.8563 C.3     1  UNL1        0.0375
     24 C         142.0964  141.7878  166.1137 C.3     1  UNL1        0.0609
     25 C         141.6425  142.6385  164.9647 C.3     1  UNL1        0.0375
     26 C         141.7841  142.1368  163.5582 C.3     1  UNL1        0.0940
     27 N         141.9547  142.2896  167.5202 N.3     1  UNL1       -0.2738
     28 C         140.6423  142.8435  167.9903 C.3     1  UNL1        0.0720
     29 C         140.5006  143.3453  169.3967 C.3     1  UNL1        0.0174
     30 C         141.6712  143.2931  170.3331 C.3     1  UNL1        0.0029
     31 C         142.9836  142.7392  169.8631 C.3     1  UNL1        0.0174
     32 C         143.1253  142.2374  168.4567 C.3     1  UNL1        0.0720
@<TRIPOS>BOND
     1    16    17    1
     2    17    18    2
     3    17    19   am
     4    19    10    1
     5    10    11   ar
     6    11    12   ar
     7    12    13   ar
     8    13     1    1
     9     1     2   ar
    10     2     3   ar
    11     3     4   ar
    12     4     5   ar
    13     5     6   ar
    14     6    21    1
    15    21    22    1
    16    22    23    1
    17    23    24    1
    18    24    27    1
    19    27    28    1
    20    28    29    1
    21    29    30    1
    22    30    31    1
    23    31    32    1
    24    24    25    1
    25    25    26    1
    26     6     7   ar
    27     7     8   ar
    28     8     9   ar
    29    13    14   ar
    30    14    15   ar
    31    15    10   ar
    32     9     1   ar
    33     8     4   ar
    34    26    21    1
    35    32    27    1
    36    19    20    1
@<TRIPOS>MOLECULE
*****
 32 36 0 0 0
SMALL
GASTEIGER

@<TRIPOS>ATOM
      1 C         142.0527  142.0789  156.7611 C.ar    1  UNL1        0.0213
      2 C         143.5317  141.9751  156.9884 C.ar    1  UNL1        0.1006
      3 N         144.1977  140.6310  156.9901 N.ar    1  UNL1       -0.2246
      4 C         143.3847  139.3908  156.7645 C.ar    1  UNL1        0.1702
      5 N         143.7611  137.9397  156.7118 N.ar    1  UNL1       -0.2052
      6 C         142.5146  137.1468  156.4520 C.ar    1  UNL1        0.1647
      7 S         141.3679  138.1078  156.3440 S.2     1  UNL1       -0.0499
      8 C         141.9057  139.4947  156.5372 C.ar    1  UNL1        0.0679
      9 C         141.2397  140.8387  156.5355 C.ar    1  UNL1        0.0112
     10 C         140.0545  146.1110  156.7559 C.ar    1  UNL1        0.1342
     11 C         141.4859  145.9839  157.1860 C.ar    1  UNL1        0.0345
     12 C         142.1520  144.6398  157.1877 C.ar    1  UNL1        0.0045
     13 C         141.3867  143.4229  156.7594 C.ar    1  UNL1        0.0208
     14 C         139.9553  143.5501  156.3293 C.ar    1  UNL1        0.1003
     15 N         139.2892  144.8940  156.3275 N.ar    1  UNL1       -0.2290
     16 C         138.6277  149.5874  155.4798 C.3     1  UNL1        0.0950
     17 C         139.2938  148.2434  155.4816 C.2     1  UNL1        0.2277
     18 O         139.8651  147.6878  154.2108 O.2     1  UNL1       -0.2747
     19 N         139.3885  147.4550  156.7541 N.am    1  UNL1       -0.2693
     20 H         139.0135  147.8196  157.5882 H       1  UNL1        0.1563
     21 N         142.4297  135.6547  156.3227 N.pl3   1  UNL1       -0.2880
     22 C         143.3166  134.7780  157.1563 C.3     1  UNL1        0.0940
     23 C         143.2317  133.2860  157.0271 C.3     1  UNL1        0.0375
     24 C         142.2600  132.6707  156.0642 C.3     1  UNL1        0.0609
     25 C         141.3731  133.5474  155.2306 C.3     1  UNL1        0.0375
     26 C         141.4580  135.0394  155.3599 C.3     1  UNL1        0.0940
     27 N         142.1750  131.1787  155.9350 N.3     1  UNL1       -0.2738
     28 C         143.0601  130.3019  156.7704 C.3     1  UNL1        0.0720
     29 C         142.9752  128.8100  156.6412 C.3     1  UNL1        0.0174
     30 C         142.0053  128.1947  155.6765 C.3     1  UNL1        0.0029
     31 C         141.1202  129.0715  154.8411 C.3     1  UNL1        0.0174
     32 C         141.2051  130.5635  154.9703 C.3     1  UNL1        0.0720
@<TRIPOS>BOND
     1    16    17    1
     2    17    18    2
     3    17    19   am
     4    19    10    1
     5    10    11   ar
     6    11    12   ar
     7    12    13   ar
     8    13     1    1
     9     1     2   ar
    10     2     3   ar
    11     3     4   ar
    12     4     5   ar
    13     5     6   ar
    14     6    21    1
    15    21    22    1
    16    22    23    1
    17    23    24    1
    18    24    27    1
    19    27    28    1
    20    28    29    1
    21    29    30    1
    22    30    31    1
    23    31    32    1
    24    24    25    1
    25    25    26    1
    26     6     7   ar
    27     7     8   ar
    28     8     9   ar
    29    13    14   ar
    30    14    15   ar
    31    15    10   ar
    32     9     1   ar
    33     8     4   ar
    34    26    21    1
    35    32    27    1
    36    19    20    1
@<TRIPOS>MOLECULE
*****
 32 36 0 0 0
SMALL
GASTEIGER

@<TRIPOS>ATOM
      1 C         140.7240  139.4636  162.3174 C.ar    1  UNL1        0.0213
      2 C         139.9975  138.7747  161.2004 C.ar    1  UNL1        0.1006
      3 N         140.5465  138.8247  159.8055 N.ar    1  UNL1       -0.2246
      4 C         141.8220  139.5635  159.5274 C.ar    1  UNL1        0.1702
      5 N         142.5994  139.7837  158.2635 N.ar    1  UNL1       -0.2052
      6 C         143.8062  140.6086  158.5995 C.ar    1  UNL1        0.1647
      7 S         143.7748  140.8983  160.0709 S.2     1  UNL1       -0.0499
      8 C         142.5485  140.2523  160.6444 C.ar    1  UNL1        0.0679
      9 C         141.9994  140.2024  162.0394 C.ar    1  UNL1        0.0112
     10 C         139.0769  139.3139  166.5026 C.ar    1  UNL1        0.1342
     11 C         138.1824  139.6860  165.3574 C.ar    1  UNL1        0.0345
     12 C         138.7314  139.7359  163.9624 C.ar    1  UNL1        0.0045
     13 C         140.1749  139.4137  163.7125 C.ar    1  UNL1        0.0208
     14 C         141.0695  139.0416  164.8576 C.ar    1  UNL1        0.1003
     15 N         140.5205  138.9917  166.2526 N.ar    1  UNL1       -0.2290
     16 C         138.5024  140.1532  170.3386 C.3     1  UNL1        0.0950
     17 C         139.0514  140.2031  168.9435 C.2     1  UNL1        0.2277
     18 O         140.1238  141.1921  168.5945 O.2     1  UNL1       -0.2747
     19 N         138.5280  139.2640  167.8976 N.am    1  UNL1       -0.2693
     20 H         137.8242  138.6148  168.1267 H       1  UNL1        0.1563
     21 N         144.8597  141.0640  157.6335 N.pl3   1  UNL1       -0.2880
     22 C         145.0593  140.3302  156.3406 C.3     1  UNL1        0.0940
     23 C         146.1127  140.7855  155.3747 C.3     1  UNL1        0.0375
     24 C         146.9664  141.9747  155.7017 C.3     1  UNL1        0.0609
     25 C         146.7668  142.7086  156.9946 C.3     1  UNL1        0.0375
     26 C         145.7134  142.2532  157.9605 C.3     1  UNL1        0.0940
     27 N         148.0199  142.4301  154.7358 N.3     1  UNL1       -0.2738
     28 C         147.7278  143.5487  153.7800 C.3     1  UNL1        0.0720
     29 C         148.7812  144.0041  152.8141 C.3     1  UNL1        0.0174
     30 C         150.1266  143.3409  152.8040 C.3     1  UNL1        0.0029
     31 C         150.4186  142.2224  153.7598 C.3     1  UNL1        0.0174
     32 C         149.3652  141.7670  154.7257 C.3     1  UNL1        0.0720
@<TRIPOS>BOND
     1    16    17    1
     2    17    18    2
     3    17    19   am
     4    19    10    1
     5    10    11   ar
     6    11    12   ar
     7    12    13   ar
     8    13     1    1
     9     1     2   ar
    10     2     3   ar
    11     3     4   ar
    12     4     5   ar
    13     5     6   ar
    14     6    21    1
    15    21    22    1
    16    22    23    1
    17    23    24    1
    18    24    27    1
    19    27    28    1
    20    28    29    1
    21    29    30    1
    22    30    31    1
    23    31    32    1
    24    24    25    1
    25    25    26    1
    26     6     7   ar
    27     7     8   ar
    28     8     9   ar
    29    13    14   ar
    30    14    15   ar
    31    15    10   ar
    32     9     1   ar
    33     8     4   ar
    34    26    21    1
    35    32    27    1
    36    19    20    1
@<TRIPOS>MOLECULE
*****
 32 36 0 0 0
SMALL
GASTEIGER

@<TRIPOS>ATOM
      1 C         140.5333  140.5687  166.0950 C.ar    1  UNL1        0.0213
      2 C         139.0448  140.4444  165.9578 C.ar    1  UNL1        0.1006
      3 N         138.3523  141.0148  164.7557 N.ar    1  UNL1       -0.2246
      4 C         139.1482  141.7095  163.6909 C.ar    1  UNL1        0.1702
      5 N         138.7449  142.3658  162.4037 N.ar    1  UNL1       -0.2052
      6 C         139.9842  142.8956  161.7455 C.ar    1  UNL1        0.1647
      7 S         141.1534  142.5669  162.6258 S.2     1  UNL1       -0.0499
      8 C         140.6367  141.8338  163.8281 C.ar    1  UNL1        0.0679
      9 C         141.3292  141.2634  165.0302 C.ar    1  UNL1        0.0112
     10 C         142.6112  138.8575  169.7012 C.ar    1  UNL1        0.1342
     11 C         141.2898  139.5505  169.8555 C.ar    1  UNL1        0.0345
     12 C         140.5972  140.1209  168.6534 C.ar    1  UNL1        0.0045
     13 C         141.2259  139.9983  167.2971 C.ar    1  UNL1        0.0208
     14 C         142.5473  139.3053  167.1428 C.ar    1  UNL1        0.1003
     15 N         143.2399  138.7349  168.3448 N.ar    1  UNL1       -0.2290
     16 C         144.8990  136.5278  171.9569 C.3     1  UNL1        0.0950
     17 C         144.2063  137.0982  170.7549 C.2     1  UNL1        0.2277
     18 O         144.4162  136.4797  169.4045 O.2     1  UNL1       -0.2747
     19 N         143.3038  138.2871  170.9032 N.am    1  UNL1       -0.2693
     20 H         143.1661  138.6930  171.7895 H       1  UNL1        0.1563
     21 N         140.0439  143.6261  160.4366 N.pl3   1  UNL1       -0.2880
     22 C         139.4584  143.0045  159.2035 C.3     1  UNL1        0.0940
     23 C         139.5181  143.7348  157.8947 C.3     1  UNL1        0.0375
     24 C         140.1633  145.0868  157.8191 C.3     1  UNL1        0.0609
     25 C         140.7489  145.7084  159.0522 C.3     1  UNL1        0.0375
     26 C         140.6892  144.9781  160.3610 C.3     1  UNL1        0.0940
     27 N         140.2230  145.8173  156.5102 N.3     1  UNL1       -0.2738
     28 C         139.3231  146.9920  156.2652 C.3     1  UNL1        0.0720
     29 C         139.3827  147.7225  154.9565 C.3     1  UNL1        0.0174
     30 C         140.3424  147.2781  153.8927 C.3     1  UNL1        0.0029
     31 C         141.2423  146.1034  154.1377 C.3     1  UNL1        0.0174
     32 C         141.1827  145.3729  155.4465 C.3     1  UNL1        0.0720
@<TRIPOS>BOND
     1    16    17    1
     2    17    18    2
     3    17    19   am
     4    19    10    1
     5    10    11   ar
     6    11    12   ar
     7    12    13   ar
     8    13     1    1
     9     1     2   ar
    10     2     3   ar
    11     3     4   ar
    12     4     5   ar
    13     5     6   ar
    14     6    21    1
    15    21    22    1
    16    22    23    1
    17    23    24    1
    18    24    27    1
    19    27    28    1
    20    28    29    1
    21    29    30    1
    22    30    31    1
    23    31    32    1
    24    24    25    1
    25    25    26    1
    26     6     7   ar
    27     7     8   ar
    28     8     9   ar
    29    13    14   ar
    30    14    15   ar
    31    15    10   ar
    32     9     1   ar
    33     8     4   ar
    34    26    21    1
    35    32    27    1
    36    19    20    1
