@<TRIPOS>MOLECULE
*****
 36 40 0 0 0
SMALL
GASTEIGER

@<TRIPOS>ATOM
      1 C         143.7330  137.6422  166.8409 C.3     1  UNL1        0.0323
      2 C         142.9508  138.9153  166.7097 C.ar    1  UNL1       -0.0060
      3 C         142.4372  139.7552  167.8415 C.ar    1  UNL1        0.0438
      4 C         141.7138  140.9311  167.2549 C.ar    1  UNL1        0.0435
      5 N         141.7803  140.8180  165.7607 N.ar    1  UNL1       -0.3137
      6 C         142.5448  139.5722  165.4237 C.ar    1  UNL1        0.0372
      7 C         143.1176  138.6363  164.4011 C.3     1  UNL1        0.0452
      8 C         143.3452  138.2609  162.9668 C.3     1  UNL1        0.0235
      9 C         143.1668  138.5467  161.5051 C.3     1  UNL1        0.0725
     10 N         142.6299  139.4171  160.4077 N.3     1  UNL1       -0.2724
     11 C         143.2028  138.4811  159.3851 C.3     1  UNL1        0.0721
     12 C         143.0243  138.7670  157.9235 C.3     1  UNL1        0.0174
     13 C         142.2729  139.9888  157.4845 C.3     1  UNL1        0.0029
     14 C         141.7001  140.9247  158.5071 C.3     1  UNL1        0.0177
     15 C         141.8786  140.6389  159.9687 C.3     1  UNL1        0.0770
     16 C         141.1141  141.8847  160.3057 C.3     1  UNL1        0.1032
     17 N         140.5413  142.8206  161.3284 N.pl3   1  UNL1       -0.3314
     18 C         140.3136  143.1960  162.7627 C.ar    1  UNL1        0.0505
     19 C         140.4921  142.9102  164.2244 C.ar    1  UNL1        0.0319
     20 C         141.0289  142.0398  165.3217 C.ar    1  UNL1        0.0646
     21 C         140.2627  143.2887  165.7609 C.ar    1  UNL1        0.0177
     22 C         139.5959  144.3718  164.9655 C.ar    1  UNL1        0.0072
     23 C         139.6214  144.3254  163.4665 C.ar    1  UNL1        0.0663
     24 C         141.0880  141.9529  168.1574 C.3     1  UNL1        0.0446
     25 C         141.1856  141.7989  169.6462 C.3     1  UNL1        0.0128
     26 C         141.0109  142.0881  171.1076 C.3     1  UNL1        0.0008
     27 C         140.4015  143.0752  169.5673 C.3     1  UNL1        0.0008
     28 C         141.9090  140.6230  170.2327 C.3     1  UNL1        0.0695
     29 C         142.5348  139.6012  169.3303 C.2     1  UNL1        0.1739
     30 O         143.2582  138.4254  169.9168 O.2     1  UNL1       -0.2913
     31 H         140.1036  143.5315  160.8065 H       1  UNL1        0.1469
     32 C         138.9546  145.4084  162.6712 C.2     1  UNL1        0.2439
     33 N         139.7659  146.5459  162.1255 N.am    1  UNL1       -0.3253
     34 O         137.4764  145.3539  162.4218 O.2     1  UNL1       -0.2703
     35 H         140.7360  146.5816  162.2892 H       1  UNL1        0.1453
     36 H         139.3282  147.2567  161.6035 H       1  UNL1        0.1453
@<TRIPOS>BOND
     1     1     2    1
     2     2     3   ar
     3     3     4   ar
     4     4     5   ar
     5     5     6   ar
     6     6     7    1
     7     7     8    1
     8     8     9    1
     9     9    10    1
    10    10    11    1
    11    11    12    1
    12    12    13    1
    13    13    14    1
    14    15    14    1
    15    15    16    1
    16    16    17    1
    17    17    18    1
    18    18    19   ar
    19    19    20   ar
    20    20    21   ar
    21    21    22   ar
    22    22    23   ar
    23    23    32    1
    24    32    33   am
    25    32    34    2
    26     4    24    1
    27    24    25    1
    28    25    26    1
    29    25    27    1
    30    25    28    1
    31    28    29    1
    32    29    30    2
    33     6     2   ar
    34    15    10    1
    35    23    18   ar
    36    29     3    1
    37    20     5    1
    38    17    31    1
    39    33    35    1
    40    33    36    1
@<TRIPOS>MOLECULE
*****
 36 40 0 0 0
SMALL
GASTEIGER

@<TRIPOS>ATOM
      1 C         137.5885  137.9557  166.6498 C.3     1  UNL1        0.0323
      2 C         138.5817  139.0739  166.5359 C.ar    1  UNL1       -0.0060
      3 C         139.0456  139.9587  167.6548 C.ar    1  UNL1        0.0438
      4 C         140.0361  140.9353  167.0934 C.ar    1  UNL1        0.0435
      5 N         140.1844  140.6541  165.6275 N.ar    1  UNL1       -0.3137
      6 C         139.2856  139.5038  165.2829 C.ar    1  UNL1        0.0372
      7 C         138.7312  138.5466  164.2698 C.3     1  UNL1        0.0452
      8 C         138.6698  138.0391  162.8596 C.3     1  UNL1        0.0235
      9 C         139.1178  138.1172  161.4302 C.3     1  UNL1        0.0725
     10 N         139.9552  138.7600  160.3646 N.3     1  UNL1       -0.2724
     11 C         139.4008  137.8028  159.3515 C.3     1  UNL1        0.0721
     12 C         139.8488  137.8810  157.9221 C.3     1  UNL1        0.0174
     13 C         140.8512  138.9163  157.5058 C.3     1  UNL1        0.0029
     14 C         141.4056  139.8735  158.5189 C.3     1  UNL1        0.0177
     15 C         140.9576  139.7953  159.9483 C.3     1  UNL1        0.0770
     16 C         141.8564  140.9457  160.2929 C.3     1  UNL1        0.1032
     17 N         142.4108  141.9029  161.3061 N.pl3   1  UNL1       -0.3314
     18 C         142.4722  142.4104  162.7163 C.ar    1  UNL1        0.0505
     19 C         142.0242  142.3323  164.1456 C.ar    1  UNL1        0.0319
     20 C         141.1868  141.6895  165.2112 C.ar    1  UNL1        0.0646
     21 C         142.0720  142.8550  165.6560 C.ar    1  UNL1        0.0177
     22 C         143.0244  143.7237  164.8889 C.ar    1  UNL1        0.0072
     23 C         143.2245  143.5014  163.4190 C.ar    1  UNL1        0.0663
     24 C         140.6750  141.9545  167.9897 C.3     1  UNL1        0.0446
     25 C         140.3234  141.9970  169.4472 C.3     1  UNL1        0.0128
     26 C         140.3147  142.4311  170.8830 C.3     1  UNL1        0.0008
     27 C         141.3108  143.1244  169.3845 C.3     1  UNL1        0.0008
     28 C         139.3328  141.0204  170.0086 C.3     1  UNL1        0.0695
     29 C         138.6939  140.0012  169.1124 C.2     1  UNL1        0.1739
     30 O         137.7035  139.0247  169.6738 O.2     1  UNL1       -0.2913
     31 H         143.0359  142.4730  160.8026 H       1  UNL1        0.1469
     32 C         144.1769  144.3701  162.6520 C.2     1  UNL1        0.2439
     33 N         144.2720  145.8346  162.9621 N.am    1  UNL1       -0.3253
     34 O         145.0340  143.7742  161.5749 O.2     1  UNL1       -0.2703
     35 H         143.7094  146.2256  163.6690 H       1  UNL1        0.1453
     36 H         144.8970  146.4048  162.4587 H       1  UNL1        0.1453
@<TRIPOS>BOND
     1     1     2    1
     2     2     3   ar
     3     3     4   ar
     4     4     5   ar
     5     5     6   ar
     6     6     7    1
     7     7     8    1
     8     8     9    1
     9     9    10    1
    10    10    11    1
    11    11    12    1
    12    12    13    1
    13    13    14    1
    14    15    14    1
    15    15    16    1
    16    16    17    1
    17    17    18    1
    18    18    19   ar
    19    19    20   ar
    20    20    21   ar
    21    21    22   ar
    22    22    23   ar
    23    23    32    1
    24    32    33   am
    25    32    34    2
    26     4    24    1
    27    24    25    1
    28    25    26    1
    29    25    27    1
    30    25    28    1
    31    28    29    1
    32    29    30    2
    33     6     2   ar
    34    15    10    1
    35    23    18   ar
    36    29     3    1
    37    20     5    1
    38    17    31    1
    39    33    35    1
    40    33    36    1
@<TRIPOS>MOLECULE
*****
 36 40 0 0 0
SMALL
GASTEIGER

@<TRIPOS>ATOM
      1 C         144.9849  143.3815  166.1706 C.3     1  UNL1        0.0323
      2 C         143.7184  142.6101  165.9456 C.ar    1  UNL1       -0.0060
      3 C         142.7839  142.1190  167.0112 C.ar    1  UNL1        0.0438
      4 C         141.6519  141.3997  166.3395 C.ar    1  UNL1        0.0435
      5 N         141.8866  141.4463  164.8588 N.ar    1  UNL1       -0.3137
      6 C         143.1638  142.1943  164.6152 C.ar    1  UNL1        0.0372
      7 C         144.1858  142.7450  163.6655 C.3     1  UNL1        0.0452
      8 C         144.6788  142.9509  162.2638 C.3     1  UNL1        0.0235
      9 C         144.5107  142.7568  160.7859 C.3     1  UNL1        0.0725
     10 N         143.7266  142.2147  159.6278 N.3     1  UNL1       -0.2724
     11 C         144.7486  142.7654  158.6781 C.3     1  UNL1        0.0721
     12 C         144.5805  142.5713  157.2002 C.3     1  UNL1        0.0174
     13 C         143.3904  141.8264  156.6722 C.3     1  UNL1        0.0029
     14 C         142.3684  141.2757  157.6220 C.3     1  UNL1        0.0177
     15 C         142.5365  141.4698  159.0998 C.3     1  UNL1        0.0770
     16 C         141.2594  140.7218  159.3433 C.3     1  UNL1        0.1032
     17 N         140.2373  140.1711  160.2932 N.pl3   1  UNL1       -0.3314
     18 C         139.7443  139.9652  161.6948 C.ar    1  UNL1        0.0505
     19 C         139.9124  140.1593  163.1726 C.ar    1  UNL1        0.0319
     20 C         140.6965  140.7014  164.3307 C.ar    1  UNL1        0.0646
     21 C         139.4079  139.9529  164.6759 C.ar    1  UNL1        0.0177
     22 C         138.3859  139.2867  163.8030 C.ar    1  UNL1        0.0072
     23 C         138.5542  139.2929  162.3124 C.ar    1  UNL1        0.0663
     24 C         140.5534  140.7953  167.1631 C.3     1  UNL1        0.0446
     25 C         140.5871  140.9102  168.6583 C.3     1  UNL1        0.0128
     26 C         140.1783  140.7567  170.0933 C.3     1  UNL1        0.0008
     27 C         139.3131  140.1377  168.4851 C.3     1  UNL1        0.0008
     28 C         141.7191  141.6295  169.3300 C.3     1  UNL1        0.0695
     29 C         142.8176  142.2339  168.5064 C.2     1  UNL1        0.1739
     30 O         143.9495  142.9531  169.1780 O.2     1  UNL1       -0.2913
     31 H         139.5666  139.7338  159.7203 H       1  UNL1        0.1469
     32 C         137.5322  138.6266  161.4396 C.2     1  UNL1        0.2439
     33 N         137.1147  137.2132  161.7185 N.am    1  UNL1       -0.3253
     34 O         136.9278  139.3740  160.2881 O.2     1  UNL1       -0.2703
     35 H         137.5115  136.7227  162.4743 H       1  UNL1        0.1453
     36 H         136.4440  136.7759  161.1457 H       1  UNL1        0.1453
@<TRIPOS>BOND
     1     1     2    1
     2     2     3   ar
     3     3     4   ar
     4     4     5   ar
     5     5     6   ar
     6     6     7    1
     7     7     8    1
     8     8     9    1
     9     9    10    1
    10    10    11    1
    11    11    12    1
    12    12    13    1
    13    13    14    1
    14    15    14    1
    15    15    16    1
    16    16    17    1
    17    17    18    1
    18    18    19   ar
    19    19    20   ar
    20    20    21   ar
    21    21    22   ar
    22    22    23   ar
    23    23    32    1
    24    32    33   am
    25    32    34    2
    26     4    24    1
    27    24    25    1
    28    25    26    1
    29    25    27    1
    30    25    28    1
    31    28    29    1
    32    29    30    2
    33     6     2   ar
    34    15    10    1
    35    23    18   ar
    36    29     3    1
    37    20     5    1
    38    17    31    1
    39    33    35    1
    40    33    36    1
@<TRIPOS>MOLECULE
*****
 36 40 0 0 0
SMALL
GASTEIGER

@<TRIPOS>ATOM
      1 C         144.7922  141.6416  161.5701 C.3     1  UNL1        0.0323
      2 C         143.7489  142.5591  161.0049 C.ar    1  UNL1       -0.0060
      3 C         142.6233  143.1912  161.7688 C.ar    1  UNL1        0.0438
      4 C         141.8267  144.0284  160.8124 C.ar    1  UNL1        0.0435
      5 N         142.4599  143.9138  159.4575 N.ar    1  UNL1       -0.3137
      6 C         143.6479  143.0057  159.5764 C.ar    1  UNL1        0.0372
      7 C         144.8166  142.3066  158.9478 C.3     1  UNL1        0.0452
      8 C         145.6529  142.0036  157.7400 C.3     1  UNL1        0.0235
      9 C         145.9328  142.1781  156.2767 C.3     1  UNL1        0.0725
     10 N         145.5812  142.7832  154.9500 N.3     1  UNL1       -0.2724
     11 C         146.7500  142.0840  154.3213 C.3     1  UNL1        0.0721
     12 C         147.0298  142.2585  152.8581 C.3     1  UNL1        0.0174
     13 C         146.1409  143.1322  152.0234 C.3     1  UNL1        0.0029
     14 C         144.9722  143.8314  152.6521 C.3     1  UNL1        0.0177
     15 C         144.6924  143.6569  154.1153 C.3     1  UNL1        0.0770
     16 C         143.5044  144.5649  153.9964 C.3     1  UNL1        0.1032
     17 N         142.3357  145.2641  154.6251 N.pl3   1  UNL1       -0.3314
     18 C         141.4993  145.5671  155.8329 C.ar    1  UNL1        0.0505
     19 C         141.2195  145.3926  157.2962 C.ar    1  UNL1        0.0319
     20 C         141.5711  144.7874  158.6229 C.ar    1  UNL1        0.0646
     21 C         140.3437  145.7001  158.5982 C.ar    1  UNL1        0.0177
     22 C         139.7016  146.4656  157.4794 C.ar    1  UNL1        0.0072
     23 C         140.2794  146.3991  156.0967 C.ar    1  UNL1        0.0663
     24 C         140.6276  144.7871  161.2990 C.3     1  UNL1        0.0446
     25 C         140.2251  144.7085  162.7419 C.3     1  UNL1        0.0128
     26 C         139.4528  144.9497  164.0049 C.3     1  UNL1        0.0008
     27 C         139.1603  145.6294  162.2242 C.3     1  UNL1        0.0008
     28 C         141.0217  143.8712  163.6982 C.3     1  UNL1        0.0695
     29 C         142.2208  143.1126  163.2116 C.2     1  UNL1        0.1739
     30 O         143.0173  142.2754  164.1679 O.2     1  UNL1       -0.2913
     31 H         141.9142  145.7665  153.8908 H       1  UNL1        0.1469
     32 C         139.6373  147.1646  154.9779 C.2     1  UNL1        0.2439
     33 N         138.1438  147.1778  154.8387 N.am    1  UNL1       -0.3253
     34 O         140.4886  147.9168  153.9985 O.2     1  UNL1       -0.2703
     35 H         137.5851  146.6840  155.4815 H       1  UNL1        0.1453
     36 H         137.7223  147.6802  154.1044 H       1  UNL1        0.1453
@<TRIPOS>BOND
     1     1     2    1
     2     2     3   ar
     3     3     4   ar
     4     4     5   ar
     5     5     6   ar
     6     6     7    1
     7     7     8    1
     8     8     9    1
     9     9    10    1
    10    10    11    1
    11    11    12    1
    12    12    13    1
    13    13    14    1
    14    15    14    1
    15    15    16    1
    16    16    17    1
    17    17    18    1
    18    18    19   ar
    19    19    20   ar
    20    20    21   ar
    21    21    22   ar
    22    22    23   ar
    23    23    32    1
    24    32    33   am
    25    32    34    2
    26     4    24    1
    27    24    25    1
    28    25    26    1
    29    25    27    1
    30    25    28    1
    31    28    29    1
    32    29    30    2
    33     6     2   ar
    34    15    10    1
    35    23    18   ar
    36    29     3    1
    37    20     5    1
    38    17    31    1
    39    33    35    1
    40    33    36    1
@<TRIPOS>MOLECULE
*****
 36 40 0 0 0
SMALL
GASTEIGER

@<TRIPOS>ATOM
      1 C         141.9607  144.6308  163.8055 C.3     1  UNL1        0.0323
      2 C         141.7375  143.3115  163.1276 C.ar    1  UNL1       -0.0060
      3 C         141.9341  141.9586  163.7449 C.ar    1  UNL1        0.0438
      4 C         141.5966  140.9245  162.7121 C.ar    1  UNL1        0.0435
      5 N         141.1914  141.6382  161.4565 N.ar    1  UNL1       -0.3137
      6 C         141.2785  143.1134  161.7133 C.ar    1  UNL1        0.0372
      7 C         141.1268  144.5266  161.2339 C.3     1  UNL1        0.0452
      8 C         140.7769  145.4991  160.1467 C.3     1  UNL1        0.0235
      9 C         140.3226  145.7702  158.7431 C.3     1  UNL1        0.0725
     10 N         139.8856  145.2674  157.3992 N.3     1  UNL1       -0.2724
     11 C         139.7339  146.6806  156.9198 C.3     1  UNL1        0.0721
     12 C         139.2796  146.9517  155.5162 C.3     1  UNL1        0.0174
     13 C         138.9770  145.8096  154.5920 C.3     1  UNL1        0.0029
     14 C         139.1287  144.3964  155.0714 C.3     1  UNL1        0.0177
     15 C         139.5830  144.1253  156.4750 C.3     1  UNL1        0.0770
     16 C         139.4959  142.6501  156.2182 C.3     1  UNL1        0.1032
     17 N         139.6477  141.2368  156.6977 N.pl3   1  UNL1       -0.3314
     18 C         139.9976  140.2644  157.7848 C.ar    1  UNL1        0.0505
     19 C         140.4519  139.9933  159.1884 C.ar    1  UNL1        0.0319
     20 C         140.8888  140.4961  160.5323 C.ar    1  UNL1        0.0646
     21 C         140.8301  138.9769  160.3635 C.ar    1  UNL1        0.0177
     22 C         140.4473  138.1255  159.1893 C.ar    1  UNL1        0.0072
     23 C         140.0310  138.7692  157.9000 C.ar    1  UNL1        0.0663
     24 C         141.7018  139.4664  163.0484 C.3     1  UNL1        0.0446
     25 C         142.1445  139.0425  164.4175 C.3     1  UNL1        0.0128
     26 C         142.5146  138.1521  165.5664 C.3     1  UNL1        0.0008
     27 C         141.9356  137.6992  163.7838 C.3     1  UNL1        0.0008
     28 C         142.4820  140.0767  165.4503 C.3     1  UNL1        0.0695
     29 C         142.3768  141.5348  165.1139 C.2     1  UNL1        0.1739
     30 O         142.7143  142.5689  166.1466 O.2     1  UNL1       -0.2913
     31 H         139.3964  140.6780  155.9271 H       1  UNL1        0.1469
     32 C         139.6482  137.9177  156.7260 C.2     1  UNL1        0.2439
     33 N         140.3981  136.6499  156.4428 N.am    1  UNL1       -0.3253
     34 O         138.5155  138.3341  155.8351 O.2     1  UNL1       -0.2703
     35 H         141.1415  136.3766  157.0275 H       1  UNL1        0.1453
     36 H         140.1468  136.0910  155.6722 H       1  UNL1        0.1453
@<TRIPOS>BOND
     1     1     2    1
     2     2     3   ar
     3     3     4   ar
     4     4     5   ar
     5     5     6   ar
     6     6     7    1
     7     7     8    1
     8     8     9    1
     9     9    10    1
    10    10    11    1
    11    11    12    1
    12    12    13    1
    13    13    14    1
    14    15    14    1
    15    15    16    1
    16    16    17    1
    17    17    18    1
    18    18    19   ar
    19    19    20   ar
    20    20    21   ar
    21    21    22   ar
    22    22    23   ar
    23    23    32    1
    24    32    33   am
    25    32    34    2
    26     4    24    1
    27    24    25    1
    28    25    26    1
    29    25    27    1
    30    25    28    1
    31    28    29    1
    32    29    30    2
    33     6     2   ar
    34    15    10    1
    35    23    18   ar
    36    29     3    1
    37    20     5    1
    38    17    31    1
    39    33    35    1
    40    33    36    1
@<TRIPOS>MOLECULE
*****
 36 40 0 0 0
SMALL
GASTEIGER

@<TRIPOS>ATOM
      1 C         141.4442  137.7645  164.0311 C.3     1  UNL1        0.0323
      2 C         141.2789  139.1757  163.5503 C.ar    1  UNL1       -0.0060
      3 C         140.8627  140.3491  164.3869 C.ar    1  UNL1        0.0438
      4 C         140.8274  141.5599  163.5021 C.ar    1  UNL1        0.0435
      5 N         141.2217  141.1347  162.1187 N.ar    1  UNL1       -0.3137
      6 C         141.5008  139.6612  162.1485 C.ar    1  UNL1        0.0372
      7 C         141.9044  138.4010  161.4422 C.3     1  UNL1        0.0452
      8 C         142.3245  137.6917  160.1890 C.3     1  UNL1        0.0235
      9 C         142.6484  137.7234  158.7247 C.3     1  UNL1        0.0725
     10 N         142.7895  138.4876  157.4417 N.3     1  UNL1       -0.2724
     11 C         143.1931  137.2274  156.7355 C.3     1  UNL1        0.0721
     12 C         143.5171  137.2592  155.2712 C.3     1  UNL1        0.0174
     13 C         143.4374  138.5511  154.5133 C.3     1  UNL1        0.0029
     14 C         143.0338  139.8114  155.2196 C.3     1  UNL1        0.0177
     15 C         142.7098  139.7796  156.6838 C.3     1  UNL1        0.0770
     16 C         142.4308  141.2531  156.6540 C.3     1  UNL1        0.1032
     17 N         142.0272  142.5134  157.3604 N.pl3   1  UNL1       -0.3314
     18 C         141.6071  143.2226  158.6136 C.ar    1  UNL1        0.0505
     19 C         141.2831  143.1909  160.0778 C.ar    1  UNL1        0.0319
     20 C         141.1421  142.4267  161.3607 C.ar    1  UNL1        0.0646
     21 C         140.8368  143.9242  161.4268 C.ar    1  UNL1        0.0177
     22 C         140.8686  144.9885  160.3703 C.ar    1  UNL1        0.0072
     23 C         141.2537  144.6378  158.9637 C.ar    1  UNL1        0.0663
     24 C         140.4407  142.8931  164.0705 C.3     1  UNL1        0.0446
     25 C         140.0894  143.0156  165.5236 C.3     1  UNL1        0.0128
     26 C         139.6759  143.6330  166.8265 C.3     1  UNL1        0.0008
     27 C         139.9105  144.4408  165.0913 C.3     1  UNL1        0.0008
     28 C         140.1247  141.8048  166.4083 C.3     1  UNL1        0.0695
     29 C         140.5114  140.4716  165.8400 C.2     1  UNL1        0.1739
     30 O         140.5467  139.2609  166.7247 O.2     1  UNL1       -0.2913
     31 H         142.0480  143.2120  156.6670 H       1  UNL1        0.1469
     32 C         141.2855  145.7021  157.9072 C.2     1  UNL1        0.2439
     33 N         142.5897  146.3306  157.5148 N.am    1  UNL1       -0.3253
     34 O         140.0130  146.1380  157.2433 O.2     1  UNL1       -0.2703
     35 H         143.4249  146.0444  157.9506 H       1  UNL1        0.1453
     36 H         142.6106  147.0292  156.8214 H       1  UNL1        0.1453
@<TRIPOS>BOND
     1     1     2    1
     2     2     3   ar
     3     3     4   ar
     4     4     5   ar
     5     5     6   ar
     6     6     7    1
     7     7     8    1
     8     8     9    1
     9     9    10    1
    10    10    11    1
    11    11    12    1
    12    12    13    1
    13    13    14    1
    14    15    14    1
    15    15    16    1
    16    16    17    1
    17    17    18    1
    18    18    19   ar
    19    19    20   ar
    20    20    21   ar
    21    21    22   ar
    22    22    23   ar
    23    23    32    1
    24    32    33   am
    25    32    34    2
    26     4    24    1
    27    24    25    1
    28    25    26    1
    29    25    27    1
    30    25    28    1
    31    28    29    1
    32    29    30    2
    33     6     2   ar
    34    15    10    1
    35    23    18   ar
    36    29     3    1
    37    20     5    1
    38    17    31    1
    39    33    35    1
    40    33    36    1
@<TRIPOS>MOLECULE
*****
 36 40 0 0 0
SMALL
GASTEIGER

@<TRIPOS>ATOM
      1 C         139.5539  145.6166  162.4904 C.3     1  UNL1        0.0323
      2 C         139.5149  144.1742  162.0804 C.ar    1  UNL1       -0.0060
      3 C         139.2098  143.0108  162.9766 C.ar    1  UNL1        0.0438
      4 C         139.2806  141.7596  162.1523 C.ar    1  UNL1        0.0435
      5 N         139.6295  142.1498  160.7466 N.ar    1  UNL1       -0.3137
      6 C         139.7743  143.6421  160.7021 C.ar    1  UNL1        0.0372
      7 C         140.0596  144.8971  159.9319 C.3     1  UNL1        0.0452
      8 C         140.4089  145.5787  158.6421 C.3     1  UNL1        0.0235
      9 C         140.7287  145.5041  157.1784 C.3     1  UNL1        0.0725
     10 N         140.9332  144.6934  155.9331 N.3     1  UNL1       -0.2724
     11 C         141.2185  145.9485  155.1629 C.3     1  UNL1        0.0721
     12 C         141.5382  145.8739  153.6993 C.3     1  UNL1        0.0174
     13 C         141.5727  144.5442  153.0060 C.3     1  UNL1        0.0029
     14 C         141.2874  143.2891  153.7762 C.3     1  UNL1        0.0177
     15 C         140.9677  143.3637  155.2398 C.3     1  UNL1        0.0770
     16 C         140.8228  141.8714  155.2842 C.3     1  UNL1        0.1032
     17 N         140.5375  140.6163  156.0546 N.pl3   1  UNL1       -0.3314
     18 C         140.1882  139.9347  157.3443 C.ar    1  UNL1        0.0505
     19 C         139.8685  140.0093  158.8079 C.ar    1  UNL1        0.0319
     20 C         139.6640  140.8201  160.0532 C.ar    1  UNL1        0.0646
     21 C         139.4955  139.3063  160.1948 C.ar    1  UNL1        0.0177
     22 C         139.6192  138.1983  159.1912 C.ar    1  UNL1        0.0072
     23 C         139.9656  138.5125  157.7660 C.ar    1  UNL1        0.0663
     24 C         139.0183  140.4266  162.7882 C.3     1  UNL1        0.0446
     25 C         138.6851  140.3448  164.2484 C.3     1  UNL1        0.0128
     26 C         138.3343  139.7576  165.5834 C.3     1  UNL1        0.0008
     27 C         138.6341  138.8897  163.8878 C.3     1  UNL1        0.0008
     28 C         138.6143  141.5959  165.0728 C.3     1  UNL1        0.0695
     29 C         138.8767  142.9290  164.4369 C.2     1  UNL1        0.1739
     30 O         138.8059  144.1801  165.2612 O.2     1  UNL1       -0.2913
     31 H         140.6187  139.8891  155.3959 H       1  UNL1        0.1469
     32 C         140.0893  137.4045  156.7625 C.2     1  UNL1        0.2439
     33 N         138.8759  136.9228  156.0238 N.am    1  UNL1       -0.3253
     34 O         141.4264  136.7783  156.4978 O.2     1  UNL1       -0.2703
     35 H         137.9984  137.3339  156.1975 H       1  UNL1        0.1453
     36 H         138.9571  136.1956  155.3651 H       1  UNL1        0.1453
@<TRIPOS>BOND
     1     1     2    1
     2     2     3   ar
     3     3     4   ar
     4     4     5   ar
     5     5     6   ar
     6     6     7    1
     7     7     8    1
     8     8     9    1
     9     9    10    1
    10    10    11    1
    11    11    12    1
    12    12    13    1
    13    13    14    1
    14    15    14    1
    15    15    16    1
    16    16    17    1
    17    17    18    1
    18    18    19   ar
    19    19    20   ar
    20    20    21   ar
    21    21    22   ar
    22    22    23   ar
    23    23    32    1
    24    32    33   am
    25    32    34    2
    26     4    24    1
    27    24    25    1
    28    25    26    1
    29    25    27    1
    30    25    28    1
    31    28    29    1
    32    29    30    2
    33     6     2   ar
    34    15    10    1
    35    23    18   ar
    36    29     3    1
    37    20     5    1
    38    17    31    1
    39    33    35    1
    40    33    36    1
@<TRIPOS>MOLECULE
*****
 36 40 0 0 0
SMALL
GASTEIGER

@<TRIPOS>ATOM
      1 C         144.1021  138.0050  161.7125 C.3     1  UNL1        0.0323
      2 C         143.6156  139.3834  161.3759 C.ar    1  UNL1       -0.0060
      3 C         143.7793  140.6082  162.2262 C.ar    1  UNL1        0.0438
      4 C         143.1449  141.7608  161.5057 C.ar    1  UNL1        0.0435
      5 N         142.5891  141.2484  160.2102 N.ar    1  UNL1       -0.3137
      6 C         142.8800  139.7791  160.1299 C.ar    1  UNL1        0.0372
      7 C         142.7925  138.4759  159.3924 C.3     1  UNL1        0.0452
      8 C         142.3501  137.6880  158.1951 C.3     1  UNL1        0.0235
      9 C         141.6712  137.6265  156.8589 C.3     1  UNL1        0.0725
     10 N         140.9378  138.3080  155.7419 N.3     1  UNL1       -0.2724
     11 C         140.8503  137.0048  155.0043 C.3     1  UNL1        0.0721
     12 C         140.1714  136.9434  153.6682 C.3     1  UNL1        0.0174
     13 C         139.5801  138.1851  153.0696 C.3     1  UNL1        0.0029
     14 C         139.6675  139.4883  153.8071 C.3     1  UNL1        0.0177
     15 C         140.3464  139.5497  155.1433 C.3     1  UNL1        0.0770
     16 C         140.0555  141.0190  155.2235 C.3     1  UNL1        0.1032
     17 N         140.1430  142.3223  155.9611 N.pl3   1  UNL1       -0.3314
     18 C         140.5855  143.1101  157.1584 C.ar    1  UNL1        0.0505
     19 C         141.2644  143.1716  158.4946 C.ar    1  UNL1        0.0319
     20 C         141.9978  142.4901  159.6116 C.ar    1  UNL1        0.0646
     21 C         141.7464  143.9895  159.7812 C.ar    1  UNL1        0.0177
     22 C         141.0607  144.9850  158.8931 C.ar    1  UNL1        0.0072
     23 C         140.4802  144.5453  157.5817 C.ar    1  UNL1        0.0663
     24 C         143.1553  143.1282  162.1225 C.3     1  UNL1        0.0446
     25 C         143.8000  143.3429  163.4598 C.3     1  UNL1        0.0128
     26 C         144.2827  144.0422  164.6958 C.3     1  UNL1        0.0008
     27 C         143.3333  144.7383  163.1686 C.3     1  UNL1        0.0008
     28 C         144.4344  142.1902  164.1802 C.3     1  UNL1        0.0695
     29 C         144.4240  140.8229  163.5634 C.2     1  UNL1        0.1739
     30 O         145.0584  139.6704  164.2839 O.2     1  UNL1       -0.2913
     31 H         139.6930  142.9757  155.3783 H       1  UNL1        0.1469
     32 C         139.7945  145.5409  156.6936 C.2     1  UNL1        0.2439
     33 N         140.0327  147.0089  156.8887 N.am    1  UNL1       -0.3253
     34 O         138.8705  145.0683  155.6106 O.2     1  UNL1       -0.2703
     35 H         140.6391  147.3190  157.5995 H       1  UNL1        0.1453
     36 H         139.5826  147.6623  156.3058 H       1  UNL1        0.1453
@<TRIPOS>BOND
     1     1     2    1
     2     2     3   ar
     3     3     4   ar
     4     4     5   ar
     5     5     6   ar
     6     6     7    1
     7     7     8    1
     8     8     9    1
     9     9    10    1
    10    10    11    1
    11    11    12    1
    12    12    13    1
    13    13    14    1
    14    15    14    1
    15    15    16    1
    16    16    17    1
    17    17    18    1
    18    18    19   ar
    19    19    20   ar
    20    20    21   ar
    21    21    22   ar
    22    22    23   ar
    23    23    32    1
    24    32    33   am
    25    32    34    2
    26     4    24    1
    27    24    25    1
    28    25    26    1
    29    25    27    1
    30    25    28    1
    31    28    29    1
    32    29    30    2
    33     6     2   ar
    34    15    10    1
    35    23    18   ar
    36    29     3    1
    37    20     5    1
    38    17    31    1
    39    33    35    1
    40    33    36    1
@<TRIPOS>MOLECULE
*****
 36 40 0 0 0
SMALL
GASTEIGER

@<TRIPOS>ATOM
      1 C         143.2091  139.4945  163.6367 C.3     1  UNL1        0.0323
      2 C         142.1705  140.2230  162.8363 C.ar    1  UNL1       -0.0060
      3 C         141.3786  141.4119  163.2937 C.ar    1  UNL1        0.0438
      4 C         140.4601  141.8142  162.1781 C.ar    1  UNL1        0.0435
      5 N         140.6844  140.8739  161.0311 N.ar    1  UNL1       -0.3137
      6 C         141.7415  139.8905  161.4379 C.ar    1  UNL1        0.0372
      7 C         142.6031  138.7042  161.1212 C.3     1  UNL1        0.0452
      8 C         143.0384  137.6330  160.1657 C.3     1  UNL1        0.0235
      9 C         142.9309  136.9638  158.8275 C.3     1  UNL1        0.0725
     10 N         142.3092  136.8759  157.4653 N.3     1  UNL1       -0.2724
     11 C         143.1708  135.6897  157.1485 C.3     1  UNL1        0.0721
     12 C         143.0632  135.0205  155.8104 C.3     1  UNL1        0.0174
     13 C         142.0939  135.5376  154.7891 C.3     1  UNL1        0.0029
     14 C         141.2323  136.7239  155.1058 C.3     1  UNL1        0.0177
     15 C         141.3399  137.3930  156.4439 C.3     1  UNL1        0.0770
     16 C         140.2829  138.3764  156.0372 C.3     1  UNL1        0.1032
     17 N         139.4212  139.5627  156.3540 N.pl3   1  UNL1       -0.3314
     18 C         138.9859  140.6340  157.3094 C.ar    1  UNL1        0.0505
     19 C         139.0935  141.3031  158.6475 C.ar    1  UNL1        0.0319
     20 C         139.7152  141.3910  160.0098 C.ar    1  UNL1        0.0646
     21 C         138.6465  142.4358  159.6839 C.ar    1  UNL1        0.0177
     22 C         137.8230  142.6580  158.4500 C.ar    1  UNL1        0.0072
     23 C         137.9927  141.7571  157.2628 C.ar    1  UNL1        0.0663
     24 C         139.5382  142.9848  162.3508 C.3     1  UNL1        0.0446
     25 C         139.5347  143.7532  163.6390 C.3     1  UNL1        0.0128
     26 C         139.1680  144.7857  164.6634 C.3     1  UNL1        0.0008
     27 C         138.4890  144.5140  162.8792 C.3     1  UNL1        0.0008
     28 C         140.4532  143.3509  164.7547 C.3     1  UNL1        0.0695
     29 C         141.3751  142.1802  164.5820 C.2     1  UNL1        0.1739
     30 O         142.2935  141.7780  165.6976 O.2     1  UNL1       -0.2913
     31 H         138.8807  139.7086  155.5441 H       1  UNL1        0.1469
     32 C         137.1691  141.9793  156.0289 C.2     1  UNL1        0.2439
     33 N         136.3661  143.2375  155.8797 N.am    1  UNL1       -0.3253
     34 O         137.1486  140.9433  154.9443 O.2     1  UNL1       -0.2703
     35 H         136.3797  143.9174  156.5916 H       1  UNL1        0.1453
     36 H         135.8256  143.3833  155.0699 H       1  UNL1        0.1453
@<TRIPOS>BOND
     1     1     2    1
     2     2     3   ar
     3     3     4   ar
     4     4     5   ar
     5     5     6   ar
     6     6     7    1
     7     7     8    1
     8     8     9    1
     9     9    10    1
    10    10    11    1
    11    11    12    1
    12    12    13    1
    13    13    14    1
    14    15    14    1
    15    15    16    1
    16    16    17    1
    17    17    18    1
    18    18    19   ar
    19    19    20   ar
    20    20    21   ar
    21    21    22   ar
    22    22    23   ar
    23    23    32    1
    24    32    33   am
    25    32    34    2
    26     4    24    1
    27    24    25    1
    28    25    26    1
    29    25    27    1
    30    25    28    1
    31    28    29    1
    32    29    30    2
    33     6     2   ar
    34    15    10    1
    35    23    18   ar
    36    29     3    1
    37    20     5    1
    38    17    31    1
    39    33    35    1
    40    33    36    1
