@<TRIPOS>MOLECULE
*****
 33 37 0 0 0
SMALL
GASTEIGER

@<TRIPOS>ATOM
      1 C         139.6335  144.1267  162.2966 C.ar    1  UNL1        0.0899
      2 C         139.2064  143.3192  161.1068 C.ar    1  UNL1        0.1063
      3 N         138.8596  141.8690  161.2700 N.ar    1  UNL1       -0.2291
      4 C         138.9400  141.2263  162.6230 C.ar    1  UNL1        0.1301
      5 C         139.3670  142.0338  163.8128 C.ar    1  UNL1        0.0503
      6 C         139.7138  143.4840  163.6495 C.ar    1  UNL1        0.0895
      7 N         140.0996  144.0226  164.9953 N.2     1  UNL1       -0.2490
      8 C         139.9912  142.9053  165.9902 C.2     1  UNL1        0.0634
      9 C         140.2463  142.8484  167.4673 C.3     1  UNL1        0.0718
     10 C         140.0487  141.5623  168.2134 C.2     1  UNL1       -0.0167
     11 C         139.5960  140.3331  167.4825 C.2     1  UNL1       -0.0040
     12 C         139.3409  140.3900  166.0055 C.2     1  UNL1        0.0010
     13 C         139.5385  141.6761  165.2594 C.2     1  UNL1        0.0180
     14 N         141.0611  146.1889  162.9742 N.am    1  UNL1       -0.3252
     15 C         139.9802  145.5769  162.1333 C.2     1  UNL1        0.2457
     16 O         139.2461  146.4153  161.1291 O.2     1  UNL1       -0.2703
     17 H         141.2887  147.1407  162.8671 H       1  UNL1        0.1453
     18 H         141.5429  145.6387  163.6333 H       1  UNL1        0.1453
     19 C         140.3038  141.5053  169.6905 C.2     1  UNL1        0.0213
     20 C         140.4990  140.2603  170.5042 C.2     1  UNL1        0.1191
     21 N         140.7243  140.6689  171.9297 N.2     1  UNL1       -0.1510
     22 N         140.6683  142.1664  171.9972 N.2     1  UNL1       -0.1695
     23 C         140.4084  142.6832  170.6133 C.3     1  UNL1        0.1768
     24 N         138.5932  139.7760  162.7862 N.pl3   1  UNL1       -0.3127
     25 H         137.7348  139.5179  163.1934 H       1  UNL1        0.1484
     26 C         139.5543  138.7191  162.3289 C.3     1  UNL1        0.1663
     27 C         139.5372  138.2563  160.9023 C.3     1  UNL1        0.4135
     28 F         139.5201  137.7934  159.4755 F       1  UNL1       -0.1682
     29 F         141.0109  137.9857  160.9723 F       1  UNL1       -0.1682
     30 F         138.0634  138.5268  160.8322 F       1  UNL1       -0.1682
     31 C         140.5326  138.1250  163.2984 C.3     1  UNL1        0.0264
     32 C         141.7744  138.2482  164.1307 C.3     1  UNL1        0.0020
     33 C         140.9851  136.9727  164.1455 C.3     1  UNL1        0.0020
@<TRIPOS>BOND
     1    14    15   am
     2    15    16    2
     3    15     1    1
     4     1     2   ar
     5     2     3   ar
     6     3     4   ar
     7     4    24    1
     8    26    24    1
     9    26    31    1
    10    31    32    1
    11    32    33    1
    12    26    27    1
    13    27    28    1
    14    27    29    1
    15    27    30    1
    16     4     5   ar
    17     5     6   ar
    18     6     7    1
    19     7     8    2
    20     8     9    1
    21     9    10    1
    22    10    19    1
    23    19    20    2
    24    20    21    1
    25    21    22    2
    26    22    23    1
    27    10    11    2
    28    11    12    1
    29    12    13    2
    30     6     1   ar
    31    13     8    1
    32    33    31    1
    33    13     5    1
    34    23    19    1
    35    14    17    1
    36    14    18    1
    37    24    25    1
@<TRIPOS>MOLECULE
*****
 33 37 0 0 0
SMALL
GASTEIGER

@<TRIPOS>ATOM
      1 C         139.6145  144.1496  162.2594 C.ar    1  UNL1        0.0899
      2 C         139.1785  143.3480  161.0690 C.ar    1  UNL1        0.1063
      3 N         138.8184  141.9008  161.2304 N.ar    1  UNL1       -0.2291
      4 C         138.8943  141.2554  162.5823 C.ar    1  UNL1        0.1301
      5 C         139.3303  142.0570  163.7728 C.ar    1  UNL1        0.0503
      6 C         139.6904  143.5042  163.6113 C.ar    1  UNL1        0.0895
      7 N         140.0828  144.0371  164.9574 N.2     1  UNL1       -0.2490
      8 C         139.9652  142.9194  165.9508 C.2     1  UNL1        0.0634
      9 C         140.2215  142.8578  167.4274 C.3     1  UNL1        0.0718
     10 C         140.0127  141.5725  168.1719 C.2     1  UNL1       -0.0167
     11 C         139.5476  140.3487  167.4397 C.2     1  UNL1       -0.0040
     12 C         139.2913  140.4102  165.9631 C.2     1  UNL1        0.0010
     13 C         139.5001  141.6956  165.2187 C.2     1  UNL1        0.0180
     14 N         141.0646  146.1964  162.9360 N.am    1  UNL1       -0.3252
     15 C         139.9747  145.5968  162.0980 C.2     1  UNL1        0.2457
     16 O         139.2448  146.4443  161.0984 O.2     1  UNL1       -0.2703
     17 H         141.3009  147.1462  162.8300 H       1  UNL1        0.1453
     18 H         141.5436  145.6402  163.5920 H       1  UNL1        0.1453
     19 C         140.2690  141.5109  169.6486 C.2     1  UNL1        0.0213
     20 C         140.3399  142.6838  170.5809 C.2     1  UNL1        0.1191
     21 N         140.6141  142.1633  171.9607 N.2     1  UNL1       -0.1510
     22 N         140.7126  140.6686  171.8812 N.2     1  UNL1       -0.1695
     23 C         140.4993  140.2654  170.4523 C.3     1  UNL1        0.1768
     24 N         138.5341  139.8081  162.7438 N.pl3   1  UNL1       -0.3127
     25 H         137.6154  139.5540  162.9898 H       1  UNL1        0.1484
     26 C         139.5739  138.7482  162.5302 C.3     1  UNL1        0.1663
     27 C         139.9623  137.8403  163.6592 C.3     1  UNL1        0.4135
     28 F         140.3507  136.9323  164.7883 F       1  UNL1       -0.1682
     29 F         141.2673  138.5674  163.7950 F       1  UNL1       -0.1682
     30 F         138.6573  137.1133  163.5235 F       1  UNL1       -0.1682
     31 C         140.2251  138.5963  161.1876 C.3     1  UNL1        0.0264
     32 C         141.4608  138.4200  160.3557 C.3     1  UNL1        0.0020
     33 C         140.1176  138.5096  159.6940 C.3     1  UNL1        0.0020
@<TRIPOS>BOND
     1    14    15   am
     2    15    16    2
     3    15     1    1
     4     1     2   ar
     5     2     3   ar
     6     3     4   ar
     7     4    24    1
     8    26    24    1
     9    26    31    1
    10    31    32    1
    11    32    33    1
    12    26    27    1
    13    27    28    1
    14    27    29    1
    15    27    30    1
    16     4     5   ar
    17     5     6   ar
    18     6     7    1
    19     7     8    2
    20     8     9    1
    21     9    10    1
    22    10    19    1
    23    19    20    2
    24    20    21    1
    25    21    22    2
    26    22    23    1
    27    10    11    2
    28    11    12    1
    29    12    13    2
    30     6     1   ar
    31    13     8    1
    32    33    31    1
    33    13     5    1
    34    23    19    1
    35    14    17    1
    36    14    18    1
    37    24    25    1
@<TRIPOS>MOLECULE
*****
 33 37 0 0 0
SMALL
GASTEIGER

@<TRIPOS>ATOM
      1 C         140.4985  144.7039  162.2226 C.ar    1  UNL1        0.0899
      2 C         141.5652  144.6759  161.1685 C.ar    1  UNL1        0.1063
      3 N         142.8661  143.9788  161.4362 N.ar    1  UNL1       -0.2291
      4 C         143.1003  143.3097  162.7582 C.ar    1  UNL1        0.1301
      5 C         142.0336  143.3377  163.8123 C.ar    1  UNL1        0.0503
      6 C         140.7327  144.0348  163.5446 C.ar    1  UNL1        0.0895
      7 N         139.8736  143.8982  164.7665 N.2     1  UNL1       -0.2490
      8 C         140.6435  143.1167  165.7895 C.2     1  UNL1        0.0634
      9 C         140.3014  142.6757  167.1818 C.3     1  UNL1        0.0718
     10 C         141.2943  141.8884  167.9844 C.2     1  UNL1       -0.0167
     11 C         142.6293  141.5420  167.3946 C.2     1  UNL1       -0.0040
     12 C         142.9714  141.9829  166.0023 C.2     1  UNL1        0.0010
     13 C         141.9785  142.7703  165.1998 C.2     1  UNL1        0.0180
     14 N         137.9110  144.7986  162.4360 N.am    1  UNL1       -0.3252
     15 C         139.1976  145.4010  161.9549 C.2     1  UNL1        0.2457
     16 O         139.1833  146.7006  161.2059 O.2     1  UNL1       -0.2703
     17 H         137.0572  145.2561  162.2602 H       1  UNL1        0.1453
     18 H         137.9203  143.9456  162.9276 H       1  UNL1        0.1453
     19 C         140.9523  141.4474  169.3767 C.2     1  UNL1        0.0213
     20 C         141.4109  142.1013  170.6464 C.2     1  UNL1        0.1191
     21 N         140.8336  141.3331  171.7982 N.2     1  UNL1       -0.1510
     22 N         140.0182  140.2043  171.2403 N.2     1  UNL1       -0.1695
     23 C         140.0916  140.2750  169.7438 C.3     1  UNL1        0.1768
     24 N         144.4013  142.6126  163.0259 N.pl3   1  UNL1       -0.3127
     25 H         145.1694  143.1205  163.3742 H       1  UNL1        0.1484
     26 C         144.5319  141.1416  162.7629 C.3     1  UNL1        0.1663
     27 C         145.0320  140.2281  163.8423 C.3     1  UNL1        0.4135
     28 F         145.5320  139.3146  164.9219 F       1  UNL1       -0.1682
     29 F         143.8172  139.3644  163.6742 F       1  UNL1       -0.1682
     30 F         146.2468  141.0919  164.0105 F       1  UNL1       -0.1682
     31 C         144.1625  140.5842  161.4202 C.3     1  UNL1        0.0264
     32 C         144.0215  139.4127  160.4941 C.3     1  UNL1        0.0020
     33 C         143.6635  140.7902  160.0207 C.3     1  UNL1        0.0020
@<TRIPOS>BOND
     1    14    15   am
     2    15    16    2
     3    15     1    1
     4     1     2   ar
     5     2     3   ar
     6     3     4   ar
     7     4    24    1
     8    26    24    1
     9    26    31    1
    10    31    32    1
    11    32    33    1
    12    26    27    1
    13    27    28    1
    14    27    29    1
    15    27    30    1
    16     4     5   ar
    17     5     6   ar
    18     6     7    1
    19     7     8    2
    20     8     9    1
    21     9    10    1
    22    10    19    1
    23    19    20    2
    24    20    21    1
    25    21    22    2
    26    22    23    1
    27    10    11    2
    28    11    12    1
    29    12    13    2
    30     6     1   ar
    31    13     8    1
    32    33    31    1
    33    13     5    1
    34    23    19    1
    35    14    17    1
    36    14    18    1
    37    24    25    1
@<TRIPOS>MOLECULE
*****
 33 37 0 0 0
SMALL
GASTEIGER

@<TRIPOS>ATOM
      1 C         140.5570  143.8513  161.9629 C.ar    1  UNL1        0.0899
      2 C         140.7919  142.9644  160.7762 C.ar    1  UNL1        0.1063
      3 N         141.0701  141.5039  160.9748 N.ar    1  UNL1       -0.2291
      4 C         141.1135  140.9302  162.3601 C.ar    1  UNL1        0.1301
      5 C         140.8786  141.8171  163.5468 C.ar    1  UNL1        0.0503
      6 C         140.6004  143.2776  163.3482 C.ar    1  UNL1        0.0895
      7 N         140.4093  143.9009  164.6991 N.2     1  UNL1       -0.2490
      8 C         140.5693  142.8256  165.7326 C.2     1  UNL1        0.0634
      9 C         140.4884  142.8527  167.2301 C.3     1  UNL1        0.0718
     10 C         140.6976  141.5920  168.0155 C.2     1  UNL1       -0.0167
     11 C         140.9877  140.3042  167.3033 C.2     1  UNL1       -0.0040
     12 C         141.0686  140.2770  165.8057 C.2     1  UNL1        0.0010
     13 C         140.8594  141.5377  165.0204 C.2     1  UNL1        0.0180
     14 N         140.6844  146.3022  162.8152 N.am    1  UNL1       -0.3252
     15 C         140.2788  145.3118  161.7643 C.2     1  UNL1        0.2457
     16 O         139.5950  145.7819  160.5147 O.2     1  UNL1       -0.2703
     17 H         140.5018  147.2608  162.6848 H       1  UNL1        0.1453
     18 H         141.1332  145.9937  163.6353 H       1  UNL1        0.1453
     19 C         140.6167  141.6192  169.5131 C.2     1  UNL1        0.0213
     20 C         140.9495  140.4835  170.4348 C.2     1  UNL1        0.1191
     21 N         140.7273  140.9492  171.8432 N.2     1  UNL1       -0.1510
     22 N         140.2572  142.3728  171.7920 N.2     1  UNL1       -0.1695
     23 C         140.1889  142.7868  170.3519 C.3     1  UNL1        0.1768
     24 N         141.3917  139.4696  162.5586 N.pl3   1  UNL1       -0.3127
     25 H         140.6538  138.8516  162.7657 H       1  UNL1        0.1484
     26 C         142.7942  138.9507  162.4416 C.3     1  UNL1        0.1663
     27 C         143.1351  137.9419  161.3852 C.3     1  UNL1        0.4135
     28 F         143.4759  136.9331  160.3288 F       1  UNL1       -0.1682
     29 F         144.4456  138.6324  161.1487 F       1  UNL1       -0.1682
     30 F         141.8246  137.2514  161.6217 F       1  UNL1       -0.1682
     31 C         143.8559  139.4406  163.3812 C.3     1  UNL1        0.0264
     32 C         144.9185  140.4389  163.7339 C.3     1  UNL1        0.0020
     33 C         144.6321  139.2910  164.6560 C.3     1  UNL1        0.0020
@<TRIPOS>BOND
     1    14    15   am
     2    15    16    2
     3    15     1    1
     4     1     2   ar
     5     2     3   ar
     6     3     4   ar
     7     4    24    1
     8    26    24    1
     9    26    31    1
    10    31    32    1
    11    32    33    1
    12    26    27    1
    13    27    28    1
    14    27    29    1
    15    27    30    1
    16     4     5   ar
    17     5     6   ar
    18     6     7    1
    19     7     8    2
    20     8     9    1
    21     9    10    1
    22    10    19    1
    23    19    20    2
    24    20    21    1
    25    21    22    2
    26    22    23    1
    27    10    11    2
    28    11    12    1
    29    12    13    2
    30     6     1   ar
    31    13     8    1
    32    33    31    1
    33    13     5    1
    34    23    19    1
    35    14    17    1
    36    14    18    1
    37    24    25    1
@<TRIPOS>MOLECULE
*****
 33 37 0 0 0
SMALL
GASTEIGER

@<TRIPOS>ATOM
      1 C         140.5984  143.8838  161.8899 C.ar    1  UNL1        0.0899
      2 C         140.8764  143.0071  160.7049 C.ar    1  UNL1        0.1063
      3 N         141.1917  141.5543  160.9044 N.ar    1  UNL1       -0.2291
      4 C         141.2289  140.9781  162.2888 C.ar    1  UNL1        0.1301
      5 C         140.9509  141.8547  163.4738 C.ar    1  UNL1        0.0503
      6 C         140.6356  143.3076  163.2743 C.ar    1  UNL1        0.0895
      7 N         140.4060  143.9215  164.6235 N.2     1  UNL1       -0.2490
      8 C         140.5793  142.8481  165.6568 C.2     1  UNL1        0.0634
      9 C         140.4740  142.8688  167.1530 C.3     1  UNL1        0.0718
     10 C         140.7055  141.6121  167.9385 C.2     1  UNL1       -0.0167
     11 C         141.0423  140.3347  167.2279 C.2     1  UNL1       -0.0040
     12 C         141.1476  140.3140  165.7318 C.2     1  UNL1        0.0010
     13 C         140.9161  141.5707  164.9463 C.2     1  UNL1        0.0180
     14 N         140.6431  146.3346  162.7506 N.am    1  UNL1       -0.3252
     15 C         140.2831  145.3366  161.6904 C.2     1  UNL1        0.2457
     16 O         139.6078  145.7915  160.4305 O.2     1  UNL1       -0.2703
     17 H         140.4362  147.2882  162.6197 H       1  UNL1        0.1453
     18 H         141.0863  146.0361  163.5775 H       1  UNL1        0.1453
     19 C         140.6002  141.6327  169.4347 C.2     1  UNL1        0.0213
     20 C         140.7787  140.4559  170.3475 C.2     1  UNL1        0.1191
     21 N         140.5867  140.9297  171.7577 N.2     1  UNL1       -0.1510
     22 N         140.2895  142.3994  171.7165 N.2     1  UNL1       -0.1695
     23 C         140.2979  142.8339  170.2808 C.3     1  UNL1        0.1768
     24 N         141.5442  139.5251  162.4883 N.pl3   1  UNL1       -0.3127
     25 H         142.4664  139.2009  162.3709 H       1  UNL1        0.1484
     26 C         140.4545  138.5663  162.8666 C.3     1  UNL1        0.1663
     27 C         140.7486  137.4242  163.7933 C.3     1  UNL1        0.4135
     28 F         141.0428  136.2820  164.7201 F       1  UNL1       -0.1682
     29 F         142.0637  137.2051  163.1058 F       1  UNL1       -0.1682
     30 F         139.4335  137.6432  164.4807 F       1  UNL1       -0.1682
     31 C         139.0705  138.7497  162.3180 C.3     1  UNL1        0.0264
     32 C         137.8043  138.1656  161.7652 C.3     1  UNL1        0.0020
     33 C         137.9395  139.6514  161.9208 C.3     1  UNL1        0.0020
@<TRIPOS>BOND
     1    14    15   am
     2    15    16    2
     3    15     1    1
     4     1     2   ar
     5     2     3   ar
     6     3     4   ar
     7     4    24    1
     8    26    24    1
     9    26    31    1
    10    31    32    1
    11    32    33    1
    12    26    27    1
    13    27    28    1
    14    27    29    1
    15    27    30    1
    16     4     5   ar
    17     5     6   ar
    18     6     7    1
    19     7     8    2
    20     8     9    1
    21     9    10    1
    22    10    19    1
    23    19    20    2
    24    20    21    1
    25    21    22    2
    26    22    23    1
    27    10    11    2
    28    11    12    1
    29    12    13    2
    30     6     1   ar
    31    13     8    1
    32    33    31    1
    33    13     5    1
    34    23    19    1
    35    14    17    1
    36    14    18    1
    37    24    25    1
@<TRIPOS>MOLECULE
*****
 33 37 0 0 0
SMALL
GASTEIGER

@<TRIPOS>ATOM
      1 C         138.3306  139.8507  162.3129 C.ar    1  UNL1        0.0899
      2 C         138.1540  140.7993  161.1645 C.ar    1  UNL1        0.1063
      3 N         138.4327  142.2615  161.3499 N.ar    1  UNL1       -0.2291
      4 C         138.8881  142.7750  162.6837 C.ar    1  UNL1        0.1301
      5 C         139.0647  141.8264  163.8321 C.ar    1  UNL1        0.0503
      6 C         138.7859  140.3642  163.6467 C.ar    1  UNL1        0.0895
      7 N         139.0468  139.6735  164.9524 N.2     1  UNL1       -0.2490
      8 C         139.4867  140.7088  165.9448 C.2     1  UNL1        0.0634
      9 C         139.8787  140.6117  167.3893 C.3     1  UNL1        0.0718
     10 C         140.2817  141.8453  168.1415 C.2     1  UNL1       -0.0167
     11 C         140.2928  143.1759  167.4491 C.2     1  UNL1       -0.0040
     12 C         139.9008  143.2729  166.0045 C.2     1  UNL1        0.0010
     13 C         139.4978  142.0393  165.2523 C.2     1  UNL1        0.0180
     14 N         138.9251  137.3680  162.7952 N.am    1  UNL1       -0.3252
     15 C         138.0518  138.3886  162.1276 C.2     1  UNL1        0.2457
     16 O         136.8997  137.9469  161.2745 O.2     1  UNL1       -0.2703
     17 H         138.7421  136.4084  162.6735 H       1  UNL1        0.1453
     18 H         139.6812  137.6579  163.3551 H       1  UNL1        0.1453
     19 C         140.6737  141.7483  169.5862 C.2     1  UNL1        0.0213
     20 C         140.2628  140.6666  170.5406 C.2     1  UNL1        0.1191
     21 N         140.8805  140.9658  171.8743 N.2     1  UNL1       -0.1510
     22 N         141.6734  142.2325  171.7442 N.2     1  UNL1       -0.1695
     23 C         141.5455  142.7161  170.3301 C.3     1  UNL1        0.1768
     24 N         139.1668  144.2373  162.8690 N.pl3   1  UNL1       -0.3127
     25 H         138.5894  144.7781  163.4549 H       1  UNL1        0.1484
     26 C         140.3254  144.8754  162.1616 C.3     1  UNL1        0.1663
     27 C         140.1323  145.4852  160.8049 C.3     1  UNL1        0.4135
     28 F         139.9391  146.0950  159.4481 F       1  UNL1       -0.1682
     29 F         139.4612  146.6705  161.4332 F       1  UNL1       -0.1682
     30 F         140.8033  144.2999  160.1766 F       1  UNL1       -0.1682
     31 C         141.6773  144.9037  162.8110 C.3     1  UNL1        0.0264
     32 C         142.5576  145.2910  163.9622 C.3     1  UNL1        0.0020
     33 C         143.1384  144.5655  162.7848 C.3     1  UNL1        0.0020
@<TRIPOS>BOND
     1    14    15   am
     2    15    16    2
     3    15     1    1
     4     1     2   ar
     5     2     3   ar
     6     3     4   ar
     7     4    24    1
     8    26    24    1
     9    26    31    1
    10    31    32    1
    11    32    33    1
    12    26    27    1
    13    27    28    1
    14    27    29    1
    15    27    30    1
    16     4     5   ar
    17     5     6   ar
    18     6     7    1
    19     7     8    2
    20     8     9    1
    21     9    10    1
    22    10    19    1
    23    19    20    2
    24    20    21    1
    25    21    22    2
    26    22    23    1
    27    10    11    2
    28    11    12    1
    29    12    13    2
    30     6     1   ar
    31    13     8    1
    32    33    31    1
    33    13     5    1
    34    23    19    1
    35    14    17    1
    36    14    18    1
    37    24    25    1
@<TRIPOS>MOLECULE
*****
 33 37 0 0 0
SMALL
GASTEIGER

@<TRIPOS>ATOM
      1 C         139.1697  139.9616  161.8821 C.ar    1  UNL1        0.0899
      2 C         139.9252  140.4956  160.7014 C.ar    1  UNL1        0.1063
      3 N         141.0798  141.4302  160.9101 N.ar    1  UNL1       -0.2291
      4 C         141.4789  141.8308  162.2994 C.ar    1  UNL1        0.1301
      5 C         140.7234  141.2967  163.4801 C.ar    1  UNL1        0.0503
      6 C         139.5688  140.3622  163.2714 C.ar    1  UNL1        0.0895
      7 N         139.0164  140.0001  164.6182 N.2     1  UNL1       -0.2490
      8 C         139.8295  140.7109  165.6592 C.2     1  UNL1        0.0634
      9 C         139.7455  140.7319  167.1566 C.3     1  UNL1        0.0718
     10 C         140.7166  141.5543  167.9507 C.2     1  UNL1       -0.0167
     11 C         141.7716  142.3557  167.2473 C.2     1  UNL1       -0.0040
     12 C         141.8556  142.3347  165.7499 C.2     1  UNL1        0.0010
     13 C         140.8845  141.5123  164.9558 C.2     1  UNL1        0.0180
     14 N         136.8128  139.4814  160.9004 N.am    1  UNL1       -0.3252
     15 C         138.0152  139.0271  161.6734 C.2     1  UNL1        0.2457
     16 O         138.0631  137.6380  162.2378 O.2     1  UNL1       -0.2703
     17 H         136.0550  138.8680  160.7634 H       1  UNL1        0.1453
     18 H         136.7814  140.3930  160.5299 H       1  UNL1        0.1453
     19 C         140.6327  141.5754  169.4483 C.2     1  UNL1        0.0213
     20 C         140.8745  140.4102  170.3614 C.2     1  UNL1        0.1191
     21 N         140.6834  140.8801  171.7730 N.2     1  UNL1       -0.1510
     22 N         140.3235  142.3357  171.7324 N.2     1  UNL1       -0.1695
     23 C         140.2922  142.7654  170.2956 C.3     1  UNL1        0.1768
     24 N         142.6335  142.7654  162.5080 N.pl3   1  UNL1       -0.3127
     25 H         143.5502  142.4106  162.5633 H       1  UNL1        0.1484
     26 C         142.3913  144.2405  162.6325 C.3     1  UNL1        0.1663
     27 C         143.2066  145.0561  163.5916 C.3     1  UNL1        0.4135
     28 F         144.0220  145.8719  164.5506 F       1  UNL1       -0.1682
     29 F         144.4598  144.6409  162.8794 F       1  UNL1       -0.1682
     30 F         141.9534  145.4714  164.3037 F       1  UNL1       -0.1682
     31 C         141.3337  144.8998  161.7978 C.3     1  UNL1        0.0264
     32 C         140.7188  145.1712  160.4568 C.3     1  UNL1        0.0020
     33 C         140.1168  145.7705  161.6931 C.3     1  UNL1        0.0020
@<TRIPOS>BOND
     1    14    15   am
     2    15    16    2
     3    15     1    1
     4     1     2   ar
     5     2     3   ar
     6     3     4   ar
     7     4    24    1
     8    26    24    1
     9    26    31    1
    10    31    32    1
    11    32    33    1
    12    26    27    1
    13    27    28    1
    14    27    29    1
    15    27    30    1
    16     4     5   ar
    17     5     6   ar
    18     6     7    1
    19     7     8    2
    20     8     9    1
    21     9    10    1
    22    10    19    1
    23    19    20    2
    24    20    21    1
    25    21    22    2
    26    22    23    1
    27    10    11    2
    28    11    12    1
    29    12    13    2
    30     6     1   ar
    31    13     8    1
    32    33    31    1
    33    13     5    1
    34    23    19    1
    35    14    17    1
    36    14    18    1
    37    24    25    1
@<TRIPOS>MOLECULE
*****
 33 37 0 0 0
SMALL
GASTEIGER

@<TRIPOS>ATOM
      1 C         140.6241  141.8243  169.3284 C.ar    1  UNL1        0.0899
      2 C         140.9778  140.4113  169.6868 C.ar    1  UNL1        0.1063
      3 N         141.2446  139.4075  168.6046 N.ar    1  UNL1       -0.2291
      4 C         141.1578  139.8167  167.1640 C.ar    1  UNL1        0.1301
      5 C         140.8041  141.2297  166.8057 C.ar    1  UNL1        0.0503
      6 C         140.5372  142.2334  167.8879 C.ar    1  UNL1        0.0895
      7 N         140.2129  143.5441  167.2346 N.2     1  UNL1       -0.2490
      8 C         140.2793  143.3504  165.7486 C.2     1  UNL1        0.0634
      9 C         140.0542  144.2917  164.6027 C.3     1  UNL1        0.0718
     10 C         140.1946  143.8026  163.1917 C.2     1  UNL1       -0.0167
     11 C         140.5600  142.3721  162.9266 C.2     1  UNL1       -0.0040
     12 C         140.7850  141.4308  164.0726 C.2     1  UNL1        0.0010
     13 C         140.6447  141.9200  165.4836 C.2     1  UNL1        0.0180
     14 N         140.1765  144.2758  170.0627 N.am    1  UNL1       -0.3252
     15 C         140.3572  142.8281  170.4107 C.2     1  UNL1        0.2457
     16 O         140.2710  142.3840  171.8409 O.2     1  UNL1       -0.2703
     17 H         140.0014  144.9347  170.7730 H       1  UNL1        0.1453
     18 H         140.2331  144.5673  169.1241 H       1  UNL1        0.1453
     19 C         139.9695  144.7439  162.0457 C.2     1  UNL1        0.0213
     20 C         139.5047  146.1662  162.1511 C.2     1  UNL1        0.1191
     21 N         139.4177  146.7294  160.7636 N.2     1  UNL1       -0.1510
     22 N         139.8287  145.6553  159.8006 N.2     1  UNL1       -0.1695
     23 C         140.1698  144.4282  160.5930 C.3     1  UNL1        0.1768
     24 N         141.4247  138.8128  166.0818 N.pl3   1  UNL1       -0.3127
     25 H         142.3512  138.5792  165.8447 H       1  UNL1        0.1484
     26 C         140.2799  138.1650  165.3609 C.3     1  UNL1        0.1663
     27 C         140.4803  137.6076  163.9829 C.3     1  UNL1        0.4135
     28 F         140.6807  137.0501  162.6048 F       1  UNL1       -0.1682
     29 F         141.5736  136.7207  164.5007 F       1  UNL1       -0.1682
     30 F         139.3870  138.4945  163.4651 F       1  UNL1       -0.1682
     31 C         138.9346  138.0747  166.0181 C.3     1  UNL1        0.0264
     32 C         137.7710  138.7391  166.6926 C.3     1  UNL1        0.0020
     33 C         137.7679  137.2539  166.4820 C.3     1  UNL1        0.0020
@<TRIPOS>BOND
     1    14    15   am
     2    15    16    2
     3    15     1    1
     4     1     2   ar
     5     2     3   ar
     6     3     4   ar
     7     4    24    1
     8    26    24    1
     9    26    31    1
    10    31    32    1
    11    32    33    1
    12    26    27    1
    13    27    28    1
    14    27    29    1
    15    27    30    1
    16     4     5   ar
    17     5     6   ar
    18     6     7    1
    19     7     8    2
    20     8     9    1
    21     9    10    1
    22    10    19    1
    23    19    20    2
    24    20    21    1
    25    21    22    2
    26    22    23    1
    27    10    11    2
    28    11    12    1
    29    12    13    2
    30     6     1   ar
    31    13     8    1
    32    33    31    1
    33    13     5    1
    34    23    19    1
    35    14    17    1
    36    14    18    1
    37    24    25    1
@<TRIPOS>MOLECULE
*****
 33 37 0 0 0
SMALL
GASTEIGER

@<TRIPOS>ATOM
      1 C         141.9098  139.3175  162.0783 C.ar    1  UNL1        0.0899
      2 C         141.9773  140.2207  160.8825 C.ar    1  UNL1        0.1063
      3 N         141.8051  141.7013  161.0503 N.ar    1  UNL1       -0.2291
      4 C         141.5655  142.2788  162.4138 C.ar    1  UNL1        0.1301
      5 C         141.4980  141.3756  163.6095 C.ar    1  UNL1        0.0503
      6 C         141.6701  139.8950  163.4418 C.ar    1  UNL1        0.0895
      7 N         141.5546  139.2587  164.7952 N.2     1  UNL1       -0.2490
      8 C         141.3111  140.3460  165.7994 C.2     1  UNL1        0.0634
      9 C         141.1168  140.3137  167.2864 C.3     1  UNL1        0.0718
     10 C         140.8874  141.5899  168.0406 C.2     1  UNL1       -0.0167
     11 C         140.8524  142.8982  167.3078 C.2     1  UNL1       -0.0040
     12 C         141.0467  142.9305  165.8208 C.2     1  UNL1        0.0010
     13 C         141.2761  141.6544  165.0666 C.2     1  UNL1        0.0180
     14 N         143.2416  137.3010  161.1245 N.am    1  UNL1       -0.3252
     15 C         142.0819  137.8369  161.9105 C.2     1  UNL1        0.2457
     16 O         141.0943  136.8922  162.5287 O.2     1  UNL1       -0.2703
     17 H         143.3546  136.3293  161.0144 H       1  UNL1        0.1453
     18 H         143.8898  137.9211  160.7188 H       1  UNL1        0.1453
     19 C         140.6930  141.5577  169.5276 C.2     1  UNL1        0.0213
     20 C         140.8670  140.3600  170.4138 C.2     1  UNL1        0.1191
     21 N         140.5720  140.7796  171.8234 N.2     1  UNL1       -0.1510
     22 N         140.2157  142.2367  171.8084 N.2     1  UNL1       -0.1695
     23 C         140.2905  142.7175  170.3895 C.3     1  UNL1        0.1768
     24 N         141.3933  143.7594  162.5816 N.pl3   1  UNL1       -0.3127
     25 H         142.1471  144.3104  162.8939 H       1  UNL1        0.1484
     26 C         140.0727  144.4006  162.2733 C.3     1  UNL1        0.1663
     27 C         139.9422  145.3204  161.0958 C.3     1  UNL1        0.4135
     28 F         139.8116  146.2403  159.9182 F       1  UNL1       -0.1682
     29 F         139.7498  144.1378  160.1933 F       1  UNL1       -0.1682
     30 F         140.1346  146.5030  161.9983 F       1  UNL1       -0.1682
     31 C         138.8827  144.1218  163.1428 C.3     1  UNL1        0.0264
     32 C         138.0897  144.3955  164.3864 C.3     1  UNL1        0.0020
     33 C         137.6143  143.3652  163.4053 C.3     1  UNL1        0.0020
@<TRIPOS>BOND
     1    14    15   am
     2    15    16    2
     3    15     1    1
     4     1     2   ar
     5     2     3   ar
     6     3     4   ar
     7     4    24    1
     8    26    24    1
     9    26    31    1
    10    31    32    1
    11    32    33    1
    12    26    27    1
    13    27    28    1
    14    27    29    1
    15    27    30    1
    16     4     5   ar
    17     5     6   ar
    18     6     7    1
    19     7     8    2
    20     8     9    1
    21     9    10    1
    22    10    19    1
    23    19    20    2
    24    20    21    1
    25    21    22    2
    26    22    23    1
    27    10    11    2
    28    11    12    1
    29    12    13    2
    30     6     1   ar
    31    13     8    1
    32    33    31    1
    33    13     5    1
    34    23    19    1
    35    14    17    1
    36    14    18    1
    37    24    25    1
