@<TRIPOS>MOLECULE
*****
 39 43 0 0 0
SMALL
GASTEIGER

@<TRIPOS>ATOM
      1 C         142.0751  140.3576  166.1287 C.cat   1  UNL1        0.3756
      2 N         143.4630  140.7299  165.6983 N.2     1  UNL1       -0.0826
      3 C         144.0055  140.2228  164.3951 C.3     1  UNL1        0.2640
      4 C         143.1601  139.3434  163.5221 C.ar    1  UNL1        0.0615
      5 C         143.7026  138.8362  162.2189 C.ar    1  UNL1        0.0031
      6 C         142.8572  137.9568  161.3460 C.ar    1  UNL1        0.0002
      7 C         141.4693  137.5846  161.7764 C.ar    1  UNL1        0.0071
      8 C         140.9268  138.0917  163.0797 C.ar    1  UNL1        0.0816
      9 C         141.7722  138.9711  163.9525 C.ar    1  UNL1        0.1133
     10 N         141.2298  139.4782  165.2559 N.pl3   1  UNL1       -0.2049
     11 H         140.3189  139.2339  165.5384 H       1  UNL1        0.2512
     12 C         140.0966  144.7550  170.1525 C.3     1  UNL1        0.0496
     13 C         140.2198  143.2633  170.2508 C.2     1  UNL1        0.0669
     14 N         139.8632  142.4258  171.4431 N.2     1  UNL1       -0.1568
     15 N         140.1443  140.9921  171.1032 N.2     1  UNL1       -0.1536
     16 C         140.6746  140.9435  169.7010 C.2     1  UNL1        0.1037
     17 C         140.7213  142.3472  169.1741 C.3     1  UNL1        0.1160
     18 C         141.2516  142.2986  167.7718 C.3     1  UNL1        0.1790
     19 N         141.5327  140.8648  167.4320 N.pl3   1  UNL1       -0.1918
     20 C         141.1761  140.0274  168.6243 C.3     1  UNL1        0.2110
     21 C         139.5390  137.7194  163.5101 C.2     1  UNL1        0.2453
     22 N         138.4477  137.5860  162.4896 N.am    1  UNL1       -0.3252
     23 O         139.2424  137.4805  164.9609 O.2     1  UNL1       -0.2703
     24 H         138.6424  137.7428  161.5374 H       1  UNL1        0.1453
     25 H         137.5368  137.3416  162.7721 H       1  UNL1        0.1453
     26 N         145.3933  140.5951  163.9647 N.3     1  UNL1       -0.2571
     27 H         145.7471  139.8179  163.4068 H       1  UNL1        0.1270
     28 C         145.6208  141.8423  163.1629 C.3     1  UNL1        0.1006
     29 C         144.5518  142.8920  163.0895 C.ar    1  UNL1        0.0251
     30 C         144.3022  143.7917  164.2635 C.ar    1  UNL1        0.1374
     31 F         145.1214  143.6416  165.5110 F       1  UNL1       -0.2045
     32 C         143.2332  144.8414  164.1900 C.ar    1  UNL1        0.0293
     33 C         142.4139  144.9915  162.9425 C.ar    1  UNL1        0.0022
     34 C         142.6636  144.0918  161.7685 C.ar    1  UNL1        0.0037
     35 C         143.7326  143.0421  161.8420 C.ar    1  UNL1        0.0709
     36 C         143.9822  142.1424  160.6679 C.3     1  UNL1        0.4184
     37 F         144.2319  141.2428  159.4939 F       1  UNL1       -0.1659
     38 F         142.6875  141.4339  160.9355 F       1  UNL1       -0.1659
     39 F         145.2769  142.8510  160.4003 F       1  UNL1       -0.1659
@<TRIPOS>BOND
     1    12    13    1
     2    13    14    2
     3    14    15    1
     4    15    16    2
     5    16    17    1
     6    17    18    1
     7    18    19    1
     8    19     1    1
     9     1     2    2
    10     2     3    1
    11     3    26    1
    12    26    28    1
    13    28    29    1
    14    29    30   ar
    15    30    31    1
    16    30    32   ar
    17    32    33   ar
    18    33    34   ar
    19    34    35   ar
    20    35    36    1
    21    36    37    1
    22    36    38    1
    23    36    39    1
    24     3     4    1
    25     4     5   ar
    26     5     6   ar
    27     6     7   ar
    28     7     8   ar
    29     8    21    1
    30    21    22   am
    31    21    23    2
    32     8     9   ar
    33     9    10    1
    34    19    20    1
    35    17    13    1
    36    10     1    1
    37    20    16    1
    38    35    29   ar
    39     9     4   ar
    40    26    27    1
    41    22    24    1
    42    22    25    1
    43    10    11    1
@<TRIPOS>MOLECULE
*****
 39 43 0 0 0
SMALL
GASTEIGER

@<TRIPOS>ATOM
      1 C         140.9048  140.9575  160.9048 C.cat   1  UNL1        0.3756
      2 N         140.2418  139.8287  161.6371 N.2     1  UNL1       -0.0826
      3 C         139.2642  140.1198  162.7369 C.3     1  UNL1        0.2640
      4 C         138.9497  141.5397  163.1045 C.ar    1  UNL1        0.0615
      5 C         137.9722  141.8308  164.2043 C.ar    1  UNL1        0.0031
      6 C         137.6577  143.2506  164.5718 C.ar    1  UNL1        0.0002
      7 C         138.3208  144.3794  163.8395 C.ar    1  UNL1        0.0071
      8 C         139.2983  144.0883  162.7397 C.ar    1  UNL1        0.0816
      9 C         139.6128  142.6685  162.3722 C.ar    1  UNL1        0.1133
     10 N         140.5904  142.3773  161.2723 N.pl3   1  UNL1       -0.2049
     11 H         141.0256  143.1181  160.7917 H       1  UNL1        0.2512
     12 C         145.7874  142.1808  157.1490 C.3     1  UNL1        0.0496
     13 C         144.8538  141.0122  157.2606 C.2     1  UNL1        0.0669
     14 N         144.8911  139.7704  156.4200 N.2     1  UNL1       -0.1568
     15 N         143.7792  138.8709  156.8723 N.2     1  UNL1       -0.1536
     16 C         143.0547  139.5567  157.9925 C.2     1  UNL1        0.1037
     17 C         143.7188  140.8801  158.2324 C.3     1  UNL1        0.1160
     18 C         142.9943  141.5659  159.3527 C.3     1  UNL1        0.1790
     19 N         141.8824  140.6663  159.8049 N.pl3   1  UNL1       -0.1918
     20 C         141.9197  139.4246  158.9643 C.3     1  UNL1        0.2110
     21 C         139.9614  145.2170  162.0074 C.2     1  UNL1        0.2453
     22 N         140.7738  146.2266  162.7628 N.am    1  UNL1       -0.3252
     23 O         139.8120  145.3363  160.5196 O.2     1  UNL1       -0.2703
     24 H         140.8718  146.1484  163.7393 H       1  UNL1        0.1453
     25 H         141.2090  146.9674  162.2822 H       1  UNL1        0.1453
     26 N         138.6011  138.9910  163.4692 N.3     1  UNL1       -0.2571
     27 H         138.3206  138.3080  162.7655 H       1  UNL1        0.1270
     28 C         139.3530  138.2389  164.5270 C.3     1  UNL1        0.1006
     29 C         139.8153  138.9474  165.7657 C.ar    1  UNL1        0.0251
     30 C         138.8363  139.2671  166.8563 C.ar    1  UNL1        0.1374
     31 F         137.3952  138.8784  166.7083 F       1  UNL1       -0.2045
     32 C         139.2986  139.9756  168.0950 C.ar    1  UNL1        0.0293
     33 C         140.7398  140.3644  168.2430 C.ar    1  UNL1        0.0022
     34 C         141.7187  140.0446  167.1524 C.ar    1  UNL1        0.0037
     35 C         141.2564  139.3362  165.9137 C.ar    1  UNL1        0.0709
     36 C         142.2354  139.0165  164.8230 C.3     1  UNL1        0.4184
     37 F         143.2143  138.6967  163.7324 F       1  UNL1       -0.1659
     38 F         142.0692  140.4001  164.2682 F       1  UNL1       -0.1659
     39 F         142.4016  137.6328  165.3779 F       1  UNL1       -0.1659
@<TRIPOS>BOND
     1    12    13    1
     2    13    14    2
     3    14    15    1
     4    15    16    2
     5    16    17    1
     6    17    18    1
     7    18    19    1
     8    19     1    1
     9     1     2    2
    10     2     3    1
    11     3    26    1
    12    26    28    1
    13    28    29    1
    14    29    30   ar
    15    30    31    1
    16    30    32   ar
    17    32    33   ar
    18    33    34   ar
    19    34    35   ar
    20    35    36    1
    21    36    37    1
    22    36    38    1
    23    36    39    1
    24     3     4    1
    25     4     5   ar
    26     5     6   ar
    27     6     7   ar
    28     7     8   ar
    29     8    21    1
    30    21    22   am
    31    21    23    2
    32     8     9   ar
    33     9    10    1
    34    19    20    1
    35    17    13    1
    36    10     1    1
    37    20    16    1
    38    35    29   ar
    39     9     4   ar
    40    26    27    1
    41    22    24    1
    42    22    25    1
    43    10    11    1
@<TRIPOS>MOLECULE
*****
 39 43 0 0 0
SMALL
GASTEIGER

@<TRIPOS>ATOM
      1 C         142.5289  141.6049  161.6348 C.cat   1  UNL1        0.3756
      2 N         143.0114  140.9776  162.9091 N.2     1  UNL1       -0.0826
      3 C         142.4313  141.4084  164.2236 C.3     1  UNL1        0.2640
      4 C         141.3688  142.4665  164.2639 C.ar    1  UNL1        0.0615
      5 C         140.7888  142.8972  165.5784 C.ar    1  UNL1        0.0031
      6 C         139.7263  143.9553  165.6187 C.ar    1  UNL1        0.0002
      7 C         139.2439  144.5826  164.3444 C.ar    1  UNL1        0.0071
      8 C         139.8239  144.1518  163.0299 C.ar    1  UNL1        0.0816
      9 C         140.8864  143.0938  162.9896 C.ar    1  UNL1        0.1133
     10 N         141.4665  142.6630  161.6751 N.pl3   1  UNL1       -0.2049
     11 H         141.1498  143.0747  160.8387 H       1  UNL1        0.2512
     12 C         146.2483  142.1298  156.6017 C.3     1  UNL1        0.0496
     13 C         145.2501  141.0950  157.0292 C.2     1  UNL1        0.0669
     14 N         144.8943  139.8484  156.2746 N.2     1  UNL1       -0.1568
     15 N         143.8566  139.1082  157.0654 N.2     1  UNL1       -0.1536
     16 C         143.5710  139.8973  158.3086 C.2     1  UNL1        0.1037
     17 C         144.4323  141.1253  158.2862 C.3     1  UNL1        0.1160
     18 C         144.1467  141.9144  159.5296 C.3     1  UNL1        0.1790
     19 N         143.1090  141.1741  160.3203 N.pl3   1  UNL1       -0.1918
     20 C         142.7532  139.9275  159.5657 C.3     1  UNL1        0.2110
     21 C         139.3415  144.7791  161.7556 C.2     1  UNL1        0.2453
     22 N         139.3111  146.2726  161.6195 N.am    1  UNL1       -0.3252
     23 O         138.8894  143.9130  160.6175 O.2     1  UNL1       -0.2703
     24 H         139.6078  146.8411  162.3665 H       1  UNL1        0.1453
     25 H         138.9944  146.6843  160.7831 H       1  UNL1        0.1453
     26 N         142.9138  140.7811  165.4979 N.3     1  UNL1       -0.2571
     27 H         142.6668  141.4208  166.2529 H       1  UNL1        0.1270
     28 C         142.4177  139.4240  165.9005 C.3     1  UNL1        0.1006
     29 C         140.9508  139.1946  166.1142 C.ar    1  UNL1        0.0251
     30 C         140.2633  139.7956  167.3043 C.ar    1  UNL1        0.1374
     31 F         141.0427  140.6259  168.2806 F       1  UNL1       -0.2045
     32 C         138.7964  139.5663  167.5180 C.ar    1  UNL1        0.0293
     33 C         138.0171  138.7360  166.5417 C.ar    1  UNL1        0.0022
     34 C         138.7046  138.1350  165.3516 C.ar    1  UNL1        0.0037
     35 C         140.1714  138.3644  165.1379 C.ar    1  UNL1        0.0709
     36 C         140.8589  137.7634  163.9478 C.3     1  UNL1        0.4184
     37 F         141.5464  137.1625  162.7577 F       1  UNL1       -0.1659
     38 F         141.2363  136.5669  164.7699 F       1  UNL1       -0.1659
     39 F         140.4816  138.9599  163.1257 F       1  UNL1       -0.1659
@<TRIPOS>BOND
     1    12    13    1
     2    13    14    2
     3    14    15    1
     4    15    16    2
     5    16    17    1
     6    17    18    1
     7    18    19    1
     8    19     1    1
     9     1     2    2
    10     2     3    1
    11     3    26    1
    12    26    28    1
    13    28    29    1
    14    29    30   ar
    15    30    31    1
    16    30    32   ar
    17    32    33   ar
    18    33    34   ar
    19    34    35   ar
    20    35    36    1
    21    36    37    1
    22    36    38    1
    23    36    39    1
    24     3     4    1
    25     4     5   ar
    26     5     6   ar
    27     6     7   ar
    28     7     8   ar
    29     8    21    1
    30    21    22   am
    31    21    23    2
    32     8     9   ar
    33     9    10    1
    34    19    20    1
    35    17    13    1
    36    10     1    1
    37    20    16    1
    38    35    29   ar
    39     9     4   ar
    40    26    27    1
    41    22    24    1
    42    22    25    1
    43    10    11    1
@<TRIPOS>MOLECULE
*****
 39 43 0 0 0
SMALL
GASTEIGER

@<TRIPOS>ATOM
      1 C         139.8273  140.5681  161.2524 C.cat   1  UNL1        0.3756
      2 N         139.0320  139.9393  162.3578 N.2     1  UNL1       -0.0826
      3 C         138.4847  140.7897  163.4655 C.3     1  UNL1        0.2640
      4 C         138.7326  142.2691  163.4678 C.ar    1  UNL1        0.0615
      5 C         138.1853  143.1196  164.5755 C.ar    1  UNL1        0.0031
      6 C         138.4333  144.5989  164.5778 C.ar    1  UNL1        0.0002
      7 C         139.2286  145.2278  163.4723 C.ar    1  UNL1        0.0071
      8 C         139.7759  144.3773  162.3646 C.ar    1  UNL1        0.0816
      9 C         139.5279  142.8980  162.3624 C.ar    1  UNL1        0.1133
     10 N         140.0753  142.0474  161.2546 N.pl3   1  UNL1       -0.2049
     11 H         140.5973  142.4602  160.5291 H       1  UNL1        0.2512
     12 C         139.5000  137.1894  155.9685 C.3     1  UNL1        0.0496
     13 C         140.6312  137.5319  156.8920 C.2     1  UNL1        0.0669
     14 N         142.0590  137.0999  156.7354 N.2     1  UNL1       -0.1568
     15 N         142.8435  137.6677  157.8809 N.2     1  UNL1       -0.1536
     16 C         141.9005  138.4507  158.7456 C.2     1  UNL1        0.1037
     17 C         140.5332  138.3668  158.1344 C.3     1  UNL1        0.1160
     18 C         139.5901  139.1498  158.9991 C.3     1  UNL1        0.1790
     19 N         140.3747  139.7176  160.1446 N.pl3   1  UNL1       -0.1918
     20 C         141.8025  139.2855  159.9879 C.3     1  UNL1        0.2110
     21 C         140.5712  145.0062  161.2592 C.2     1  UNL1        0.2453
     22 N         142.0654  145.0869  161.3624 N.am    1  UNL1       -0.3252
     23 O         139.8723  145.5543  160.0504 O.2     1  UNL1       -0.2703
     24 H         142.5242  144.7272  162.1558 H       1  UNL1        0.1453
     25 H         142.5874  145.4997  160.6369 H       1  UNL1        0.1453
     26 N         137.6894  140.1609  164.5710 N.3     1  UNL1       -0.2571
     27 H         137.1843  139.3755  164.1604 H       1  UNL1        0.1270
     28 C         138.3859  139.6371  165.7918 C.3     1  UNL1        0.1006
     29 C         139.8138  139.1860  165.7051 C.ar    1  UNL1        0.0251
     30 C         140.1642  137.9501  164.9304 C.ar    1  UNL1        0.1374
     31 F         139.0866  137.1655  164.2426 F       1  UNL1       -0.2045
     32 C         141.5921  137.4990  164.8437 C.ar    1  UNL1        0.0293
     33 C         142.6697  138.2837  165.5317 C.ar    1  UNL1        0.0022
     34 C         142.3193  139.5195  166.3062 C.ar    1  UNL1        0.0037
     35 C         140.8913  139.9706  166.3930 C.ar    1  UNL1        0.0709
     36 C         140.5410  141.2065  167.1676 C.3     1  UNL1        0.4184
     37 F         140.1906  142.4422  167.9423 F       1  UNL1       -0.1659
     38 F         140.8858  142.0507  165.9767 F       1  UNL1       -0.1659
     39 F         140.1961  140.3622  168.3585 F       1  UNL1       -0.1659
@<TRIPOS>BOND
     1    12    13    1
     2    13    14    2
     3    14    15    1
     4    15    16    2
     5    16    17    1
     6    17    18    1
     7    18    19    1
     8    19     1    1
     9     1     2    2
    10     2     3    1
    11     3    26    1
    12    26    28    1
    13    28    29    1
    14    29    30   ar
    15    30    31    1
    16    30    32   ar
    17    32    33   ar
    18    33    34   ar
    19    34    35   ar
    20    35    36    1
    21    36    37    1
    22    36    38    1
    23    36    39    1
    24     3     4    1
    25     4     5   ar
    26     5     6   ar
    27     6     7   ar
    28     7     8   ar
    29     8    21    1
    30    21    22   am
    31    21    23    2
    32     8     9   ar
    33     9    10    1
    34    19    20    1
    35    17    13    1
    36    10     1    1
    37    20    16    1
    38    35    29   ar
    39     9     4   ar
    40    26    27    1
    41    22    24    1
    42    22    25    1
    43    10    11    1
@<TRIPOS>MOLECULE
*****
 39 43 0 0 0
SMALL
GASTEIGER

@<TRIPOS>ATOM
      1 C         142.3371  140.5507  165.6207 C.cat   1  UNL1        0.3756
      2 N         142.2124  139.2573  164.8712 N.2     1  UNL1       -0.0826
      3 C         142.6527  139.1746  163.4397 C.3     1  UNL1        0.2640
      4 C         143.2177  140.3852  162.7576 C.ar    1  UNL1        0.0615
      5 C         143.6580  140.3024  161.3261 C.ar    1  UNL1        0.0031
      6 C         144.2230  141.5130  160.6440 C.ar    1  UNL1        0.0002
      7 C         144.3477  142.8064  161.3935 C.ar    1  UNL1        0.0071
      8 C         143.9074  142.8891  162.8250 C.ar    1  UNL1        0.0816
      9 C         143.3424  141.6786  163.5070 C.ar    1  UNL1        0.1133
     10 N         142.9020  141.7613  164.9386 N.pl3   1  UNL1       -0.2049
     11 H         142.9839  142.6102  165.4305 H       1  UNL1        0.2512
     12 C         138.2390  140.0927  170.3575 C.3     1  UNL1        0.0496
     13 C         139.6855  140.4844  170.2942 C.2     1  UNL1        0.0669
     14 N         140.5414  140.8881  171.4580 N.2     1  UNL1       -0.1568
     15 N         141.9150  141.1944  170.9389 N.2     1  UNL1       -0.1536
     16 C         141.9081  140.9802  169.4544 C.2     1  UNL1        0.1037
     17 C         140.5301  140.5414  169.0559 C.3     1  UNL1        0.1160
     18 C         140.5231  140.3271  167.5712 C.3     1  UNL1        0.1790
     19 N         141.8967  140.6335  167.0522 N.pl3   1  UNL1       -0.1918
     20 C         142.7527  141.0371  168.2160 C.3     1  UNL1        0.2110
     21 C         144.0320  144.1825  163.5744 C.2     1  UNL1        0.2453
     22 N         143.7860  145.4840  162.8704 N.am    1  UNL1       -0.3252
     23 O         144.4027  144.1744  165.0278 O.2     1  UNL1       -0.2703
     24 H         143.5427  145.4893  161.9165 H       1  UNL1        0.1453
     25 H         143.8678  146.3328  163.3623 H       1  UNL1        0.1453
     26 N         142.5281  137.8812  162.6903 N.3     1  UNL1       -0.2571
     27 H         143.0125  137.1732  163.2422 H       1  UNL1        0.1270
     28 C         141.1712  137.3274  162.3705 C.3     1  UNL1        0.1006
     29 C         140.1439  138.1961  161.7073 C.ar    1  UNL1        0.0251
     30 C         140.3176  138.6020  160.2737 C.ar    1  UNL1        0.1374
     31 F         141.5186  138.1392  159.5034 F       1  UNL1       -0.2045
     32 C         139.2902  139.4707  159.6104 C.ar    1  UNL1        0.0293
     33 C         138.0891  139.9335  160.3808 C.ar    1  UNL1        0.0022
     34 C         137.9155  139.5276  161.8143 C.ar    1  UNL1        0.0037
     35 C         138.9429  138.6589  162.4776 C.ar    1  UNL1        0.0709
     36 C         138.7692  138.2530  163.9112 C.3     1  UNL1        0.4184
     37 F         138.5955  137.8472  165.3447 F       1  UNL1       -0.1659
     38 F         138.3288  136.8882  163.4715 F       1  UNL1       -0.1659
     39 F         139.2096  139.6178  164.3509 F       1  UNL1       -0.1659
@<TRIPOS>BOND
     1    12    13    1
     2    13    14    2
     3    14    15    1
     4    15    16    2
     5    16    17    1
     6    17    18    1
     7    18    19    1
     8    19     1    1
     9     1     2    2
    10     2     3    1
    11     3    26    1
    12    26    28    1
    13    28    29    1
    14    29    30   ar
    15    30    31    1
    16    30    32   ar
    17    32    33   ar
    18    33    34   ar
    19    34    35   ar
    20    35    36    1
    21    36    37    1
    22    36    38    1
    23    36    39    1
    24     3     4    1
    25     4     5   ar
    26     5     6   ar
    27     6     7   ar
    28     7     8   ar
    29     8    21    1
    30    21    22   am
    31    21    23    2
    32     8     9   ar
    33     9    10    1
    34    19    20    1
    35    17    13    1
    36    10     1    1
    37    20    16    1
    38    35    29   ar
    39     9     4   ar
    40    26    27    1
    41    22    24    1
    42    22    25    1
    43    10    11    1
@<TRIPOS>MOLECULE
*****
 39 43 0 0 0
SMALL
GASTEIGER

@<TRIPOS>ATOM
      1 C         141.1209  141.0953  165.5128 C.cat   1  UNL1        0.3756
      2 N         139.8702  141.0180  164.6884 N.2     1  UNL1       -0.0826
      3 C         139.9601  140.7876  163.2090 C.3     1  UNL1        0.2640
      4 C         141.3009  140.6345  162.5539 C.ar    1  UNL1        0.0615
      5 C         141.3909  140.4041  161.0745 C.ar    1  UNL1        0.0031
      6 C         142.7315  140.2510  160.4195 C.ar    1  UNL1        0.0002
      7 C         143.9823  140.3283  161.2439 C.ar    1  UNL1        0.0071
      8 C         143.8923  140.5586  162.7233 C.ar    1  UNL1        0.0816
      9 C         142.5516  140.7118  163.3783 C.ar    1  UNL1        0.1133
     10 N         142.4616  140.9422  164.8579 N.pl3   1  UNL1       -0.2049
     11 H         143.2825  140.9929  165.3990 H       1  UNL1        0.2512
     12 C         142.9500  143.4695  171.0318 C.3     1  UNL1        0.0496
     13 C         141.8047  142.5883  170.6295 C.2     1  UNL1        0.0669
     14 N         140.7540  142.0348  171.5457 N.2     1  UNL1       -0.1568
     15 N         139.8090  141.2103  170.7227 N.2     1  UNL1       -0.1536
     16 C         140.2757  141.2544  169.2978 C.2     1  UNL1        0.1037
     17 C         141.5092  142.1061  169.2402 C.3     1  UNL1        0.1160
     18 C         141.9759  142.1501  167.8153 C.3     1  UNL1        0.1790
     19 N         141.0309  141.3257  166.9924 N.pl3   1  UNL1       -0.1918
     20 C         139.9801  140.7721  167.9086 C.3     1  UNL1        0.2110
     21 C         145.1430  140.6359  163.5478 C.2     1  UNL1        0.2453
     22 N         146.0899  141.7853  163.3682 N.am    1  UNL1       -0.3252
     23 O         145.4469  139.5638  164.5518 O.2     1  UNL1       -0.2703
     24 H         145.8905  142.4890  162.7092 H       1  UNL1        0.1453
     25 H         146.9108  141.8360  163.9093 H       1  UNL1        0.1453
     26 N         138.7094  140.7103  162.3845 N.3     1  UNL1       -0.2571
     27 H         138.0416  140.1504  162.9145 H       1  UNL1        0.1270
     28 C         137.9974  141.9678  161.9823 C.3     1  UNL1        0.1006
     29 C         138.7782  143.1386  161.4633 C.ar    1  UNL1        0.0251
     30 C         139.3199  143.1182  160.0647 C.ar    1  UNL1        0.1374
     31 F         139.0808  141.9269  159.1851 F       1  UNL1       -0.2045
     32 C         140.1008  144.2890  159.5456 C.ar    1  UNL1        0.0293
     33 C         140.3399  145.4803  160.4253 C.ar    1  UNL1        0.0022
     34 C         139.7982  145.5007  161.8238 C.ar    1  UNL1        0.0037
     35 C         139.0173  144.3299  162.3429 C.ar    1  UNL1        0.0709
     36 C         138.4756  144.3503  163.7415 C.3     1  UNL1        0.4184
     37 F         137.9338  144.3708  165.1401 F       1  UNL1       -0.1659
     38 F         139.8465  144.0604  164.2768 F       1  UNL1       -0.1659
     39 F         137.1047  144.6403  163.2063 F       1  UNL1       -0.1659
@<TRIPOS>BOND
     1    12    13    1
     2    13    14    2
     3    14    15    1
     4    15    16    2
     5    16    17    1
     6    17    18    1
     7    18    19    1
     8    19     1    1
     9     1     2    2
    10     2     3    1
    11     3    26    1
    12    26    28    1
    13    28    29    1
    14    29    30   ar
    15    30    31    1
    16    30    32   ar
    17    32    33   ar
    18    33    34   ar
    19    34    35   ar
    20    35    36    1
    21    36    37    1
    22    36    38    1
    23    36    39    1
    24     3     4    1
    25     4     5   ar
    26     5     6   ar
    27     6     7   ar
    28     7     8   ar
    29     8    21    1
    30    21    22   am
    31    21    23    2
    32     8     9   ar
    33     9    10    1
    34    19    20    1
    35    17    13    1
    36    10     1    1
    37    20    16    1
    38    35    29   ar
    39     9     4   ar
    40    26    27    1
    41    22    24    1
    42    22    25    1
    43    10    11    1
@<TRIPOS>MOLECULE
*****
 39 43 0 0 0
SMALL
GASTEIGER

@<TRIPOS>ATOM
      1 C         141.6670  139.5583  165.2739 C.cat   1  UNL1        0.3756
      2 N         143.1058  139.9796  165.2268 N.2     1  UNL1       -0.0826
      3 C         143.8761  139.8758  163.9439 C.3     1  UNL1        0.2640
      4 C         143.2074  139.3508  162.7080 C.ar    1  UNL1        0.0615
      5 C         143.9777  139.2470  161.4251 C.ar    1  UNL1        0.0031
      6 C         143.3090  138.7220  160.1893 C.ar    1  UNL1        0.0002
      7 C         141.8702  138.3008  160.2364 C.ar    1  UNL1        0.0071
      8 C         141.1000  138.4045  161.5193 C.ar    1  UNL1        0.0816
      9 C         141.7686  138.9295  162.7551 C.ar    1  UNL1        0.1133
     10 N         140.9984  139.0333  164.0381 N.pl3   1  UNL1       -0.2049
     11 H         140.0540  138.7568  164.0691 H       1  UNL1        0.2512
     12 C         140.8964  140.8675  171.3677 C.3     1  UNL1        0.0496
     13 C         139.9698  140.3411  170.3121 C.2     1  UNL1        0.0669
     14 N         138.5264  139.9816  170.5056 N.2     1  UNL1       -0.1568
     15 N         137.9884  139.5000  169.1907 N.2     1  UNL1       -0.1536
     16 C         139.0993  139.5619  168.1847 C.2     1  UNL1        0.1037
     17 C         140.3239  140.0817  168.8778 C.3     1  UNL1        0.1160
     18 C         141.4348  140.1437  167.8717 C.3     1  UNL1        0.1790
     19 N         140.8968  139.6621  166.5569 N.pl3   1  UNL1       -0.1918
     20 C         139.4534  139.3026  166.7504 C.3     1  UNL1        0.2110
     21 C         139.6611  137.9833  161.5664 C.2     1  UNL1        0.2453
     22 N         138.7856  138.1684  160.3626 N.am    1  UNL1       -0.3252
     23 O         139.0977  137.3769  162.8173 O.2     1  UNL1       -0.2703
     24 H         139.1553  138.5664  159.5416 H       1  UNL1        0.1453
     25 H         137.8412  137.8919  160.3936 H       1  UNL1        0.1453
     26 N         145.3149  140.2971  163.8967 N.3     1  UNL1       -0.2571
     27 H         145.7128  139.8918  163.0495 H       1  UNL1        0.1270
     28 C         145.6698  141.7544  163.8875 C.3     1  UNL1        0.1006
     29 C         144.6578  142.7701  163.4468 C.ar    1  UNL1        0.0251
     30 C         144.4314  143.0177  161.9847 C.ar    1  UNL1        0.1374
     31 F         145.2171  142.2497  160.9635 F       1  UNL1       -0.2045
     32 C         143.4194  144.0333  161.5440 C.ar    1  UNL1        0.0293
     33 C         142.6337  144.8013  162.5653 C.ar    1  UNL1        0.0022
     34 C         142.8601  144.5536  164.0272 C.ar    1  UNL1        0.0037
     35 C         143.8721  143.5380  164.4680 C.ar    1  UNL1        0.0709
     36 C         144.0985  143.2904  165.9300 C.3     1  UNL1        0.4184
     37 F         144.3249  143.0428  167.3920 F       1  UNL1       -0.1659
     38 F         142.7861  142.5685  166.0110 F       1  UNL1       -0.1659
     39 F         145.4108  144.0122  165.8491 F       1  UNL1       -0.1659
@<TRIPOS>BOND
     1    12    13    1
     2    13    14    2
     3    14    15    1
     4    15    16    2
     5    16    17    1
     6    17    18    1
     7    18    19    1
     8    19     1    1
     9     1     2    2
    10     2     3    1
    11     3    26    1
    12    26    28    1
    13    28    29    1
    14    29    30   ar
    15    30    31    1
    16    30    32   ar
    17    32    33   ar
    18    33    34   ar
    19    34    35   ar
    20    35    36    1
    21    36    37    1
    22    36    38    1
    23    36    39    1
    24     3     4    1
    25     4     5   ar
    26     5     6   ar
    27     6     7   ar
    28     7     8   ar
    29     8    21    1
    30    21    22   am
    31    21    23    2
    32     8     9   ar
    33     9    10    1
    34    19    20    1
    35    17    13    1
    36    10     1    1
    37    20    16    1
    38    35    29   ar
    39     9     4   ar
    40    26    27    1
    41    22    24    1
    42    22    25    1
    43    10    11    1
@<TRIPOS>MOLECULE
*****
 39 43 0 0 0
SMALL
GASTEIGER

@<TRIPOS>ATOM
      1 C         140.4867  140.6477  165.7720 C.cat   1  UNL1        0.3756
      2 N         141.1846  139.4651  165.1684 N.2     1  UNL1       -0.0826
      3 C         141.0036  139.1498  163.7131 C.3     1  UNL1        0.2640
      4 C         140.1248  140.0173  162.8614 C.ar    1  UNL1        0.0615
      5 C         139.9439  139.7020  161.4061 C.ar    1  UNL1        0.0031
      6 C         139.0652  140.5694  160.5545 C.ar    1  UNL1        0.0002
      7 C         138.3673  141.7521  161.1581 C.ar    1  UNL1        0.0071
      8 C         138.5483  142.0673  162.6134 C.ar    1  UNL1        0.0816
      9 C         139.4270  141.1999  163.4650 C.ar    1  UNL1        0.1133
     10 N         139.6080  141.5151  164.9204 N.pl3   1  UNL1       -0.2049
     11 H         139.1500  142.2914  165.3166 H       1  UNL1        0.2512
     12 C         143.2782  143.3297  170.7174 C.3     1  UNL1        0.0496
     13 C         142.0855  142.4302  170.5828 C.2     1  UNL1        0.0669
     14 N         141.2248  141.9332  171.7063 N.2     1  UNL1       -0.1568
     15 N         140.1513  141.0656  171.1189 N.2     1  UNL1       -0.1536
     16 C         140.3485  141.0264  169.6325 C.2     1  UNL1        0.1037
     17 C         141.5440  141.8698  169.3011 C.3     1  UNL1        0.1160
     18 C         141.7412  141.8306  167.8146 C.3     1  UNL1        0.1790
     19 N         140.6677  140.9630  167.2274 N.pl3   1  UNL1       -0.1918
     20 C         139.8070  140.4659  168.3508 C.3     1  UNL1        0.2110
     21 C         137.8504  143.2500  163.2170 C.2     1  UNL1        0.2453
     22 N         137.6592  144.5001  162.4104 N.am    1  UNL1       -0.3252
     23 O         137.3438  143.1825  164.6272 O.2     1  UNL1       -0.2703
     24 H         137.9917  144.5444  161.4848 H       1  UNL1        0.1453
     25 H         137.2012  145.2763  162.8066 H       1  UNL1        0.1453
     26 N         141.7015  137.9672  163.1095 N.3     1  UNL1       -0.2571
     27 H         141.0680  137.5757  162.4125 H       1  UNL1        0.1270
     28 C         143.0303  138.1435  162.4364 C.3     1  UNL1        0.1006
     29 C         143.8454  139.3755  162.6970 C.ar    1  UNL1        0.0251
     30 C         144.5122  139.5662  164.0271 C.ar    1  UNL1        0.1374
     31 F         144.3639  138.5250  165.0965 F       1  UNL1       -0.2045
     32 C         145.3273  140.7982  164.2876 C.ar    1  UNL1        0.0293
     33 C         145.4755  141.8395  163.2181 C.ar    1  UNL1        0.0022
     34 C         144.8087  141.6487  161.8881 C.ar    1  UNL1        0.0037
     35 C         143.9937  140.4168  161.6275 C.ar    1  UNL1        0.0709
     36 C         143.3268  140.2261  160.2974 C.3     1  UNL1        0.4184
     37 F         142.6600  140.0354  158.9674 F       1  UNL1       -0.1659
     38 F         144.2775  139.1099  159.9808 F       1  UNL1       -0.1659
     39 F         142.3762  141.3423  160.6140 F       1  UNL1       -0.1659
@<TRIPOS>BOND
     1    12    13    1
     2    13    14    2
     3    14    15    1
     4    15    16    2
     5    16    17    1
     6    17    18    1
     7    18    19    1
     8    19     1    1
     9     1     2    2
    10     2     3    1
    11     3    26    1
    12    26    28    1
    13    28    29    1
    14    29    30   ar
    15    30    31    1
    16    30    32   ar
    17    32    33   ar
    18    33    34   ar
    19    34    35   ar
    20    35    36    1
    21    36    37    1
    22    36    38    1
    23    36    39    1
    24     3     4    1
    25     4     5   ar
    26     5     6   ar
    27     6     7   ar
    28     7     8   ar
    29     8    21    1
    30    21    22   am
    31    21    23    2
    32     8     9   ar
    33     9    10    1
    34    19    20    1
    35    17    13    1
    36    10     1    1
    37    20    16    1
    38    35    29   ar
    39     9     4   ar
    40    26    27    1
    41    22    24    1
    42    22    25    1
    43    10    11    1
@<TRIPOS>MOLECULE
*****
 39 43 0 0 0
SMALL
GASTEIGER

@<TRIPOS>ATOM
      1 C         140.6651  140.5017  160.7417 C.cat   1  UNL1        0.3756
      2 N         139.9190  139.4923  161.5631 N.2     1  UNL1       -0.0826
      3 C         139.0389  139.9454  162.6900 C.3     1  UNL1        0.2640
      4 C         138.9047  141.4078  162.9956 C.ar    1  UNL1        0.0615
      5 C         138.0246  141.8609  164.1226 C.ar    1  UNL1        0.0031
      6 C         137.8905  143.3233  164.4281 C.ar    1  UNL1        0.0002
      7 C         138.6366  144.3326  163.6068 C.ar    1  UNL1        0.0071
      8 C         139.5167  143.8796  162.4798 C.ar    1  UNL1        0.0816
      9 C         139.6508  142.4172  162.1743 C.ar    1  UNL1        0.1133
     10 N         140.5310  141.9640  161.0473 N.pl3   1  UNL1       -0.2049
     11 H         141.0207  142.6265  160.5082 H       1  UNL1        0.2512
     12 C         142.5277  136.6134  156.1751 C.3     1  UNL1        0.0496
     13 C         143.0560  137.9242  156.6776 C.2     1  UNL1        0.0669
     14 N         144.2541  138.6539  156.1464 N.2     1  UNL1       -0.1568
     15 N         144.4175  139.9162  156.9399 N.2     1  UNL1       -0.1536
     16 C         143.3204  139.9668  157.9616 C.2     1  UNL1        0.1037
     17 C         142.4789  138.7356  157.7995 C.3     1  UNL1        0.1160
     18 C         141.3818  138.7862  158.8212 C.3     1  UNL1        0.1790
     19 N         141.5453  140.0485  159.6147 N.pl3   1  UNL1       -0.1918
     20 C         142.7434  140.7782  159.0835 C.3     1  UNL1        0.2110
     21 C         140.2628  144.8889  161.6585 C.2     1  UNL1        0.2453
     22 N         139.5394  146.0705  161.0838 N.am    1  UNL1       -0.3252
     23 O         141.7323  144.7165  161.4118 O.2     1  UNL1       -0.2703
     24 H         138.5749  146.1836  161.2456 H       1  UNL1        0.1453
     25 H         140.0291  146.7330  160.5447 H       1  UNL1        0.1453
     26 N         138.2928  138.9361  163.5114 N.3     1  UNL1       -0.2571
     27 H         137.8812  138.2704  162.8572 H       1  UNL1        0.1270
     28 C         139.0167  138.1314  164.5498 C.3     1  UNL1        0.1006
     29 C         139.6302  138.8154  165.7355 C.ar    1  UNL1        0.0251
     30 C         138.7679  139.2330  166.8897 C.ar    1  UNL1        0.1374
     31 F         137.2921  138.9665  166.8582 F       1  UNL1       -0.2045
     32 C         139.3815  139.9170  168.0753 C.ar    1  UNL1        0.0293
     33 C         140.8573  140.1834  168.1067 C.ar    1  UNL1        0.0022
     34 C         141.7196  139.7659  166.9525 C.ar    1  UNL1        0.0037
     35 C         141.1060  139.0819  165.7669 C.ar    1  UNL1        0.0709
     36 C         141.9683  138.6644  164.6127 C.3     1  UNL1        0.4184
     37 F         142.8306  138.2468  163.4586 F       1  UNL1       -0.1659
     38 F         141.8809  140.0504  164.0459 F       1  UNL1       -0.1659
     39 F         142.0557  137.2783  165.1794 F       1  UNL1       -0.1659
@<TRIPOS>BOND
     1    12    13    1
     2    13    14    2
     3    14    15    1
     4    15    16    2
     5    16    17    1
     6    17    18    1
     7    18    19    1
     8    19     1    1
     9     1     2    2
    10     2     3    1
    11     3    26    1
    12    26    28    1
    13    28    29    1
    14    29    30   ar
    15    30    31    1
    16    30    32   ar
    17    32    33   ar
    18    33    34   ar
    19    34    35   ar
    20    35    36    1
    21    36    37    1
    22    36    38    1
    23    36    39    1
    24     3     4    1
    25     4     5   ar
    26     5     6   ar
    27     6     7   ar
    28     7     8   ar
    29     8    21    1
    30    21    22   am
    31    21    23    2
    32     8     9   ar
    33     9    10    1
    34    19    20    1
    35    17    13    1
    36    10     1    1
    37    20    16    1
    38    35    29   ar
    39     9     4   ar
    40    26    27    1
    41    22    24    1
    42    22    25    1
    43    10    11    1
