@<TRIPOS>MOLECULE
*****
 39 42 0 0 0
SMALL
GASTEIGER

@<TRIPOS>ATOM
      1 C         139.8971  139.4555  165.4628 C.ar    1  UNL1       -0.0026
      2 C         140.2788  138.5905  164.2983 C.ar    1  UNL1       -0.0026
      3 C         141.6428  137.9691  164.2410 C.ar    1  UNL1       -0.0003
      4 C         142.6251  138.2126  165.3481 C.ar    1  UNL1       -0.0000
      5 C         142.2434  139.0777  166.5126 C.ar    1  UNL1       -0.0003
      6 C         140.8794  139.6991  166.5700 C.ar    1  UNL1       -0.0022
      7 C         140.4976  140.5641  167.7344 C.ar    1  UNL1        0.0041
      8 C         139.6302  140.0118  168.8265 C.ar    1  UNL1        0.0001
      9 C         139.2485  140.8769  169.9909 C.ar    1  UNL1        0.0000
     10 C         139.7342  142.2943  170.0634 C.ar    1  UNL1        0.0001
     11 C         140.6016  142.8466  168.9713 C.ar    1  UNL1        0.0045
     12 C         140.9833  141.9815  167.8068 C.ar    1  UNL1        0.0534
     13 C         141.8507  142.5338  166.7147 C.2     1  UNL1        0.2461
     14 O         143.3420  142.3979  166.8004 O.2     1  UNL1       -0.2701
     15 N         141.2266  143.2220  165.5370 N.am    1  UNL1       -0.2968
     16 H         140.2478  143.3112  165.4808 H       1  UNL1        0.1501
     17 C         142.0940  143.7743  164.4449 C.3     1  UNL1        0.1188
     18 C         142.3925  142.9440  163.2319 C.ar    1  UNL1        0.0251
     19 C         141.6749  141.6443  163.0175 C.ar    1  UNL1        0.0019
     20 C         141.9734  140.8140  161.8045 C.ar    1  UNL1        0.0295
     21 C         142.9895  141.2833  160.8059 C.ar    1  UNL1        0.1424
     22 F         143.2880  140.4530  159.5929 F       1  UNL1       -0.2041
     23 C         143.7071  142.5829  161.0202 C.ar    1  UNL1        0.0590
     24 C         143.4086  143.4133  162.2333 C.ar    1  UNL1        0.1400
     25 F         144.1262  144.7130  162.4476 F       1  UNL1       -0.2044
     26 C         138.5331  140.0770  165.5201 C.3     1  UNL1        0.1163
     27 C         137.8369  141.6346  163.5606 C.2     1  UNL1        0.2271
     28 O         137.5800  140.4346  162.6981 O.2     1  UNL1       -0.2747
     29 N         138.3134  141.4558  164.9717 N.am    1  UNL1       -0.3001
     30 H         138.4821  142.2434  165.5378 H       1  UNL1        0.1498
     31 C         137.6173  143.0133  163.0122 C.3     1  UNL1        0.1113
     32 C         140.7187  144.8965  160.3505 C.ar    1  UNL1        0.1387
     33 C         140.3042  145.5805  161.6194 C.ar    1  UNL1        0.0366
     34 C         139.2704  144.9528  162.5066 C.ar    1  UNL1       -0.0007
     35 C         138.6511  143.6411  162.1250 C.ar    1  UNL1       -0.0129
     36 C         139.0657  142.9570  160.8561 C.ar    1  UNL1       -0.0007
     37 C         140.0995  143.5847  159.9688 C.ar    1  UNL1        0.0366
     38 C         141.4795  145.6955  157.9983 C.3     1  UNL1        0.2525
     39 O         141.7526  145.5242  159.4632 O.3     1  UNL1       -0.4714
@<TRIPOS>BOND
     1    38    39    1
     2    39    32    1
     3    32    33   ar
     4    33    34   ar
     5    34    35   ar
     6    35    31    1
     7    31    27    1
     8    27    28    2
     9    27    29   am
    10    29    26    1
    11    26     1    1
    12     1     2   ar
    13     2     3   ar
    14     3     4   ar
    15     4     5   ar
    16     5     6   ar
    17     6     7    1
    18     7     8   ar
    19     8     9   ar
    20     9    10   ar
    21    10    11   ar
    22    11    12   ar
    23    12    13    1
    24    13    14    2
    25    13    15   am
    26    15    17    1
    27    17    18    1
    28    18    19   ar
    29    19    20   ar
    30    20    21   ar
    31    21    22    1
    32    21    23   ar
    33    23    24   ar
    34    24    25    1
    35    35    36   ar
    36    36    37   ar
    37    37    32   ar
    38     6     1   ar
    39    12     7   ar
    40    24    18   ar
    41    29    30    1
    42    15    16    1
@<TRIPOS>MOLECULE
*****
 39 42 0 0 0
SMALL
GASTEIGER

@<TRIPOS>ATOM
      1 C         143.2937  141.2610  165.6666 C.ar    1  UNL1       -0.0026
      2 C         143.8514  140.3654  164.6005 C.ar    1  UNL1       -0.0026
      3 C         143.9457  138.8870  164.8364 C.ar    1  UNL1       -0.0003
      4 C         143.4821  138.3043  166.1386 C.ar    1  UNL1       -0.0000
      5 C         142.9243  139.2000  167.2048 C.ar    1  UNL1       -0.0003
      6 C         142.8301  140.6783  166.9688 C.ar    1  UNL1       -0.0022
      7 C         142.2724  141.5739  168.0350 C.ar    1  UNL1        0.0041
      8 C         143.1844  142.1726  169.0644 C.ar    1  UNL1        0.0001
      9 C         142.6267  143.0682  170.1305 C.ar    1  UNL1        0.0000
     10 C         141.1568  143.3652  170.1673 C.ar    1  UNL1        0.0001
     11 C         140.2447  142.7665  169.1379 C.ar    1  UNL1        0.0045
     12 C         140.8025  141.8708  168.0717 C.ar    1  UNL1        0.0534
     13 C         139.8905  141.2721  167.0423 C.2     1  UNL1        0.2461
     14 O         139.5209  142.0584  165.8196 O.2     1  UNL1       -0.2701
     15 N         139.3479  139.8871  167.2357 N.am    1  UNL1       -0.2968
     16 H         139.5904  139.3710  168.0383 H       1  UNL1        0.1501
     17 C         138.4358  139.2884  166.2063 C.3     1  UNL1        0.1188
     18 C         138.9743  138.9033  164.8603 C.ar    1  UNL1        0.0251
     19 C         140.0451  137.8585  164.7517 C.ar    1  UNL1        0.0019
     20 C         140.5835  137.4735  163.4057 C.ar    1  UNL1        0.0295
     21 C         140.0512  138.1332  162.1683 C.ar    1  UNL1        0.1424
     22 F         140.5896  137.7482  160.8223 F       1  UNL1       -0.2041
     23 C         138.9805  139.1780  162.2768 C.ar    1  UNL1        0.0590
     24 C         138.4419  139.5631  163.6229 C.ar    1  UNL1        0.1400
     25 F         137.3712  140.6079  163.7314 F       1  UNL1       -0.2044
     26 C         143.1994  142.7393  165.4307 C.3     1  UNL1        0.1163
     27 C         142.1511  144.5493  163.8896 C.2     1  UNL1        0.2271
     28 O         143.4892  145.2149  163.7611 O.2     1  UNL1       -0.2747
     29 N         142.0062  143.3115  164.7243 N.am    1  UNL1       -0.3001
     30 H         141.1280  142.8746  164.8087 H       1  UNL1        0.1498
     31 C         140.9579  145.1215  163.1833 C.3     1  UNL1        0.1113
     32 C         138.8596  142.7228  160.0063 C.ar    1  UNL1        0.1387
     33 C         138.3147  142.7560  161.4034 C.ar    1  UNL1        0.0366
     34 C         139.0142  143.5556  162.4624 C.ar    1  UNL1       -0.0007
     35 C         140.2585  144.3219  162.1243 C.ar    1  UNL1       -0.0129
     36 C         140.8033  144.2887  160.7272 C.ar    1  UNL1       -0.0007
     37 C         140.1039  143.4891  159.6682 C.ar    1  UNL1        0.0366
     38 C         138.4644  140.4633  158.7863 C.3     1  UNL1        0.2525
     39 O         138.1601  141.9232  158.9473 O.3     1  UNL1       -0.4714
@<TRIPOS>BOND
     1    38    39    1
     2    39    32    1
     3    32    33   ar
     4    33    34   ar
     5    34    35   ar
     6    35    31    1
     7    31    27    1
     8    27    28    2
     9    27    29   am
    10    29    26    1
    11    26     1    1
    12     1     2   ar
    13     2     3   ar
    14     3     4   ar
    15     4     5   ar
    16     5     6   ar
    17     6     7    1
    18     7     8   ar
    19     8     9   ar
    20     9    10   ar
    21    10    11   ar
    22    11    12   ar
    23    12    13    1
    24    13    14    2
    25    13    15   am
    26    15    17    1
    27    17    18    1
    28    18    19   ar
    29    19    20   ar
    30    20    21   ar
    31    21    22    1
    32    21    23   ar
    33    23    24   ar
    34    24    25    1
    35    35    36   ar
    36    36    37   ar
    37    37    32   ar
    38     6     1   ar
    39    12     7   ar
    40    24    18   ar
    41    29    30    1
    42    15    16    1
@<TRIPOS>MOLECULE
*****
 39 42 0 0 0
SMALL
GASTEIGER

@<TRIPOS>ATOM
      1 C         139.4911  141.9214  165.9361 C.ar    1  UNL1       -0.0026
      2 C         138.5889  141.2771  164.9258 C.ar    1  UNL1       -0.0026
      3 C         138.1083  139.8720  165.1376 C.ar    1  UNL1       -0.0003
      4 C         138.5298  139.1113  166.3596 C.ar    1  UNL1       -0.0000
      5 C         139.4321  139.7556  167.3701 C.ar    1  UNL1       -0.0003
      6 C         139.9127  141.1607  167.1583 C.ar    1  UNL1       -0.0022
      7 C         140.8149  141.8050  168.1687 C.ar    1  UNL1        0.0041
      8 C         140.2313  142.6294  169.2776 C.ar    1  UNL1        0.0001
      9 C         141.1335  143.2737  170.2879 C.ar    1  UNL1        0.0000
     10 C         142.6194  143.0936  170.1894 C.ar    1  UNL1        0.0001
     11 C         143.2031  142.2692  169.0805 C.ar    1  UNL1        0.0045
     12 C         142.3008  141.6249  168.0701 C.ar    1  UNL1        0.0534
     13 C         142.8844  140.8004  166.9612 C.2     1  UNL1        0.2461
     14 O         143.3782  141.4666  165.7113 O.2     1  UNL1       -0.2701
     15 N         142.9742  139.3097  167.1022 N.am    1  UNL1       -0.2968
     16 H         142.6501  138.8725  167.9226 H       1  UNL1        0.1501
     17 C         143.5579  138.4853  165.9933 C.3     1  UNL1        0.1188
     18 C         142.8003  138.3096  164.7107 C.ar    1  UNL1        0.0251
     19 C         141.4605  137.6350  164.7173 C.ar    1  UNL1        0.0019
     20 C         140.7029  137.4593  163.4347 C.ar    1  UNL1        0.0295
     21 C         141.2851  137.9581  162.1454 C.ar    1  UNL1        0.1424
     22 F         140.5275  137.7824  160.8628 F       1  UNL1       -0.2041
     23 C         142.6248  138.6327  162.1388 C.ar    1  UNL1        0.0590
     24 C         143.3824  138.8084  163.4214 C.ar    1  UNL1        0.1400
     25 F         144.7222  139.4830  163.4148 F       1  UNL1       -0.2044
     26 C         139.9718  143.3264  165.7244 C.3     1  UNL1        0.1163
     27 C         141.4102  144.5682  163.9526 C.2     1  UNL1        0.2271
     28 O         140.1942  145.3137  163.4881 O.2     1  UNL1       -0.2747
     29 N         141.2990  143.5746  165.0708 N.am    1  UNL1       -0.3001
     30 H         142.0970  143.0853  165.3757 H       1  UNL1        0.1498
     31 C         142.7373  144.8164  163.2991 C.3     1  UNL1        0.1113
     32 C         144.0233  142.3056  159.7931 C.ar    1  UNL1        0.1387
     33 C         144.8602  142.3410  161.0374 C.ar    1  UNL1        0.0366
     34 C         144.4316  143.1779  162.2060 C.ar    1  UNL1       -0.0007
     35 C         143.1660  143.9795  162.1304 C.ar    1  UNL1       -0.0129
     36 C         142.3290  143.9440  160.8861 C.ar    1  UNL1       -0.0007
     37 C         142.7577  143.1071  159.7175 C.ar    1  UNL1        0.0366
     38 C         145.1416  142.1088  157.4563 C.3     1  UNL1        0.2525
     39 O         144.4520  141.4686  158.6245 O.3     1  UNL1       -0.4714
@<TRIPOS>BOND
     1    38    39    1
     2    39    32    1
     3    32    33   ar
     4    33    34   ar
     5    34    35   ar
     6    35    31    1
     7    31    27    1
     8    27    28    2
     9    27    29   am
    10    29    26    1
    11    26     1    1
    12     1     2   ar
    13     2     3   ar
    14     3     4   ar
    15     4     5   ar
    16     5     6   ar
    17     6     7    1
    18     7     8   ar
    19     8     9   ar
    20     9    10   ar
    21    10    11   ar
    22    11    12   ar
    23    12    13    1
    24    13    14    2
    25    13    15   am
    26    15    17    1
    27    17    18    1
    28    18    19   ar
    29    19    20   ar
    30    20    21   ar
    31    21    22    1
    32    21    23   ar
    33    23    24   ar
    34    24    25    1
    35    35    36   ar
    36    36    37   ar
    37    37    32   ar
    38     6     1   ar
    39    12     7   ar
    40    24    18   ar
    41    29    30    1
    42    15    16    1
@<TRIPOS>MOLECULE
*****
 39 42 0 0 0
SMALL
GASTEIGER

@<TRIPOS>ATOM
      1 C         141.2287  143.1705  165.4265 C.ar    1  UNL1       -0.0026
      2 C         142.0564  143.7222  164.3038 C.ar    1  UNL1       -0.0026
      3 C         143.5535  143.7023  164.3957 C.ar    1  UNL1       -0.0003
      4 C         144.2228  143.1306  165.6102 C.ar    1  UNL1       -0.0000
      5 C         143.3951  142.5789  166.7330 C.ar    1  UNL1       -0.0003
      6 C         141.8980  142.5988  166.6411 C.ar    1  UNL1       -0.0022
      7 C         141.0703  142.0471  167.7638 C.ar    1  UNL1        0.0041
      8 C         140.6501  142.9389  168.8943 C.ar    1  UNL1        0.0001
      9 C         139.8224  142.3872  170.0170 C.ar    1  UNL1        0.0000
     10 C         139.4148  140.9436  170.0092 C.ar    1  UNL1        0.0001
     11 C         139.8350  140.0518  168.8786 C.ar    1  UNL1        0.0045
     12 C         140.6627  140.6036  167.7559 C.ar    1  UNL1        0.0534
     13 C         141.0829  139.7118  166.6254 C.2     1  UNL1        0.2461
     14 O         140.1570  139.4812  165.4680 O.2     1  UNL1       -0.2701
     15 N         142.4291  139.0505  166.6522 N.am    1  UNL1       -0.2968
     16 H         143.0368  139.2019  167.4118 H       1  UNL1        0.1501
     17 C         142.8493  138.1587  165.5217 C.3     1  UNL1        0.1188
     18 C         143.1765  138.7494  164.1823 C.ar    1  UNL1        0.0251
     19 C         144.2128  139.8282  164.0713 C.ar    1  UNL1        0.0019
     20 C         144.5401  140.4189  162.7319 C.ar    1  UNL1        0.0295
     21 C         143.8311  139.9307  161.5034 C.ar    1  UNL1        0.1424
     22 F         144.1584  140.5213  160.1641 F       1  UNL1       -0.2041
     23 C         142.7949  138.8519  161.6144 C.ar    1  UNL1        0.0590
     24 C         142.4676  138.2612  162.9538 C.ar    1  UNL1        0.1400
     25 F         141.4313  137.1824  163.0648 F       1  UNL1       -0.2044
     26 C         139.7316  143.1905  165.3346 C.3     1  UNL1        0.1163
     27 C         137.9703  142.3504  163.6193 C.2     1  UNL1        0.2271
     28 O         137.6598  143.7690  163.2435 O.2     1  UNL1       -0.2747
     29 N         139.0062  142.0611  164.6649 N.am    1  UNL1       -0.3001
     30 H         139.2100  141.1301  164.9116 H       1  UNL1        0.1498
     31 C         137.2449  141.2212  162.9496 C.3     1  UNL1        0.1113
     32 C         139.2744  138.8521  159.7063 C.ar    1  UNL1        0.1387
     33 C         138.9524  138.2030  161.0196 C.ar    1  UNL1        0.0366
     34 C         138.2759  138.9926  162.1007 C.ar    1  UNL1       -0.0007
     35 C         137.9214  140.4315  161.8685 C.ar    1  UNL1       -0.0129
     36 C         138.2434  141.0807  160.5552 C.ar    1  UNL1       -0.0007
     37 C         138.9199  140.2910  159.4741 C.ar    1  UNL1        0.0366
     38 C         141.2644  138.5255  158.0684 C.3     1  UNL1        0.2525
     39 O         139.9509  138.0625  158.6252 O.3     1  UNL1       -0.4714
@<TRIPOS>BOND
     1    38    39    1
     2    39    32    1
     3    32    33   ar
     4    33    34   ar
     5    34    35   ar
     6    35    31    1
     7    31    27    1
     8    27    28    2
     9    27    29   am
    10    29    26    1
    11    26     1    1
    12     1     2   ar
    13     2     3   ar
    14     3     4   ar
    15     4     5   ar
    16     5     6   ar
    17     6     7    1
    18     7     8   ar
    19     8     9   ar
    20     9    10   ar
    21    10    11   ar
    22    11    12   ar
    23    12    13    1
    24    13    14    2
    25    13    15   am
    26    15    17    1
    27    17    18    1
    28    18    19   ar
    29    19    20   ar
    30    20    21   ar
    31    21    22    1
    32    21    23   ar
    33    23    24   ar
    34    24    25    1
    35    35    36   ar
    36    36    37   ar
    37    37    32   ar
    38     6     1   ar
    39    12     7   ar
    40    24    18   ar
    41    29    30    1
    42    15    16    1
@<TRIPOS>MOLECULE
*****
 39 42 0 0 0
SMALL
GASTEIGER

@<TRIPOS>ATOM
      1 C         141.2532  138.8750  165.8268 C.ar    1  UNL1       -0.0026
      2 C         140.3341  138.2285  164.8331 C.ar    1  UNL1       -0.0026
      3 C         138.8491  138.3909  164.9689 C.ar    1  UNL1       -0.0003
      4 C         138.2832  139.1997  166.0984 C.ar    1  UNL1       -0.0000
      5 C         139.2024  139.8461  167.0921 C.ar    1  UNL1       -0.0003
      6 C         140.6873  139.6838  166.9563 C.ar    1  UNL1       -0.0022
      7 C         141.6065  140.3302  167.9499 C.ar    1  UNL1        0.0041
      8 C         141.9399  139.6261  169.2317 C.ar    1  UNL1        0.0001
      9 C         142.8590  140.2725  170.2253 C.ar    1  UNL1        0.0000
     10 C         143.4448  141.6231  169.9371 C.ar    1  UNL1        0.0001
     11 C         143.1113  142.3272  168.6553 C.ar    1  UNL1        0.0045
     12 C         142.1922  141.6807  167.6616 C.ar    1  UNL1        0.0534
     13 C         141.8587  142.3848  166.3798 C.2     1  UNL1        0.2461
     14 O         142.8937  142.5092  165.3013 O.2     1  UNL1       -0.2701
     15 N         140.4902  142.9643  166.1765 N.am    1  UNL1       -0.2968
     16 H         139.8108  142.8826  166.8844 H       1  UNL1        0.1501
     17 C         140.1567  143.6684  164.8947 C.3     1  UNL1        0.1188
     18 C         139.6361  142.8884  163.7240 C.ar    1  UNL1        0.0251
     19 C         140.2562  141.5705  163.3653 C.ar    1  UNL1        0.0019
     20 C         139.7355  140.7905  162.1947 C.ar    1  UNL1        0.0295
     21 C         138.5947  141.3283  161.3827 C.ar    1  UNL1        0.1424
     22 F         138.0741  140.5483  160.2121 F       1  UNL1       -0.2041
     23 C         137.9746  142.6462  161.7413 C.ar    1  UNL1        0.0590
     24 C         138.4953  143.4263  162.9120 C.ar    1  UNL1        0.1400
     25 F         137.8752  144.7441  163.2707 F       1  UNL1       -0.2044
     26 C         142.7382  138.7126  165.6909 C.3     1  UNL1        0.1163
     27 C         143.6520  139.2674  163.3230 C.2     1  UNL1        0.2271
     28 O         143.0208  138.0169  162.7865 O.2     1  UNL1       -0.2747
     29 N         143.5107  139.6153  164.7752 N.am    1  UNL1       -0.3001
     30 H         143.9250  140.4360  165.1274 H       1  UNL1        0.1498
     31 C         144.4245  140.1700  162.4073 C.3     1  UNL1        0.1113
     32 C         142.3993  143.7065  160.4989 C.ar    1  UNL1        0.1387
     33 C         143.2010  143.8883  161.7535 C.ar    1  UNL1        0.0366
     34 C         143.8761  142.7095  162.3896 C.ar    1  UNL1       -0.0007
     35 C         143.7494  141.3488  161.7712 C.ar    1  UNL1       -0.0129
     36 C         142.9477  141.1670  160.5166 C.ar    1  UNL1       -0.0007
     37 C         142.2726  142.3458  159.8805 C.ar    1  UNL1        0.0366
     38 C         140.4939  145.4726  160.4884 C.3     1  UNL1        0.2525
     39 O         141.7242  144.8853  159.8628 O.3     1  UNL1       -0.4714
@<TRIPOS>BOND
     1    38    39    1
     2    39    32    1
     3    32    33   ar
     4    33    34   ar
     5    34    35   ar
     6    35    31    1
     7    31    27    1
     8    27    28    2
     9    27    29   am
    10    29    26    1
    11    26     1    1
    12     1     2   ar
    13     2     3   ar
    14     3     4   ar
    15     4     5   ar
    16     5     6   ar
    17     6     7    1
    18     7     8   ar
    19     8     9   ar
    20     9    10   ar
    21    10    11   ar
    22    11    12   ar
    23    12    13    1
    24    13    14    2
    25    13    15   am
    26    15    17    1
    27    17    18    1
    28    18    19   ar
    29    19    20   ar
    30    20    21   ar
    31    21    22    1
    32    21    23   ar
    33    23    24   ar
    34    24    25    1
    35    35    36   ar
    36    36    37   ar
    37    37    32   ar
    38     6     1   ar
    39    12     7   ar
    40    24    18   ar
    41    29    30    1
    42    15    16    1
@<TRIPOS>MOLECULE
*****
 39 42 0 0 0
SMALL
GASTEIGER

@<TRIPOS>ATOM
      1 C         139.1599  141.1437  165.5044 C.ar    1  UNL1       -0.0026
      2 C         138.5039  141.9128  164.3961 C.ar    1  UNL1       -0.0026
      3 C         138.6007  143.4093  164.3622 C.ar    1  UNL1       -0.0003
      4 C         139.3534  144.1367  165.4365 C.ar    1  UNL1       -0.0000
      5 C         140.0094  143.3677  166.5448 C.ar    1  UNL1       -0.0003
      6 C         139.9126  141.8712  166.5788 C.ar    1  UNL1       -0.0022
      7 C         140.5686  141.1021  167.6870 C.ar    1  UNL1        0.0041
      8 C         139.7508  140.6083  168.8435 C.ar    1  UNL1        0.0001
      9 C         140.4067  139.8393  169.9517 C.ar    1  UNL1        0.0000
     10 C         141.8805  139.5640  169.9036 C.ar    1  UNL1        0.0001
     11 C         142.6983  140.0579  168.7471 C.ar    1  UNL1        0.0045
     12 C         142.0423  140.8270  167.6388 C.ar    1  UNL1        0.0534
     13 C         142.8601  141.3208  166.4824 C.2     1  UNL1        0.2461
     14 O         143.4399  142.7039  166.5102 O.2     1  UNL1       -0.2701
     15 N         143.0980  140.4314  165.2981 N.am    1  UNL1       -0.2968
     16 H         142.7175  139.5236  165.2798 H       1  UNL1        0.1501
     17 C         143.9158  140.9253  164.1416 C.3     1  UNL1        0.1188
     18 C         143.2374  141.5163  162.9415 C.ar    1  UNL1        0.0251
     19 C         141.7409  141.4981  162.8411 C.ar    1  UNL1        0.0019
     20 C         141.0625  142.0892  161.6409 C.ar    1  UNL1        0.0295
     21 C         141.8806  142.6984  160.5411 C.ar    1  UNL1        0.1424
     22 F         141.2022  143.2894  159.3410 F       1  UNL1       -0.2041
     23 C         143.3771  142.7166  160.6415 C.ar    1  UNL1        0.0590
     24 C         144.0555  142.1256  161.8417 C.ar    1  UNL1        0.1400
     25 F         145.5520  142.1438  161.9421 F       1  UNL1       -0.2044
     26 C         139.0631  139.6472  165.5383 C.3     1  UNL1        0.1163
     27 C         140.6574  138.0559  164.2437 C.2     1  UNL1        0.2271
     28 O         141.6085  138.0653  165.4036 O.2     1  UNL1       -0.2747
     29 N         139.3846  138.8469  164.3111 N.am    1  UNL1       -0.3001
     30 H         138.7603  138.8407  163.5498 H       1  UNL1        0.1498
     31 C         140.9789  137.2555  163.0165 C.3     1  UNL1        0.1113
     32 C         143.3471  139.1165  159.6731 C.ar    1  UNL1        0.1387
     33 C         144.0532  138.5690  160.8780 C.ar    1  UNL1        0.0366
     34 C         143.2638  137.9487  161.9924 C.ar    1  UNL1       -0.0007
     35 C         141.7683  137.8759  161.9021 C.ar    1  UNL1       -0.0129
     36 C         141.0623  138.4233  160.6972 C.ar    1  UNL1       -0.0007
     37 C         141.8517  139.0437  159.5828 C.ar    1  UNL1        0.0366
     38 C         143.4668  140.6706  157.5946 C.3     1  UNL1        0.2525
     39 O         144.1365  139.7368  158.5586 O.3     1  UNL1       -0.4714
@<TRIPOS>BOND
     1    38    39    1
     2    39    32    1
     3    32    33   ar
     4    33    34   ar
     5    34    35   ar
     6    35    31    1
     7    31    27    1
     8    27    28    2
     9    27    29   am
    10    29    26    1
    11    26     1    1
    12     1     2   ar
    13     2     3   ar
    14     3     4   ar
    15     4     5   ar
    16     5     6   ar
    17     6     7    1
    18     7     8   ar
    19     8     9   ar
    20     9    10   ar
    21    10    11   ar
    22    11    12   ar
    23    12    13    1
    24    13    14    2
    25    13    15   am
    26    15    17    1
    27    17    18    1
    28    18    19   ar
    29    19    20   ar
    30    20    21   ar
    31    21    22    1
    32    21    23   ar
    33    23    24   ar
    34    24    25    1
    35    35    36   ar
    36    36    37   ar
    37    37    32   ar
    38     6     1   ar
    39    12     7   ar
    40    24    18   ar
    41    29    30    1
    42    15    16    1
@<TRIPOS>MOLECULE
*****
 39 42 0 0 0
SMALL
GASTEIGER

@<TRIPOS>ATOM
      1 C         141.6393  143.3340  165.1921 C.ar    1  UNL1       -0.0026
      2 C         141.7753  144.2005  163.9753 C.ar    1  UNL1       -0.0026
      3 C         140.5781  144.9212  163.4301 C.ar    1  UNL1       -0.0003
      4 C         139.2448  144.7754  164.1017 C.ar    1  UNL1       -0.0000
      5 C         139.1087  143.9088  165.3185 C.ar    1  UNL1       -0.0003
      6 C         140.3059  143.1881  165.8637 C.ar    1  UNL1       -0.0022
      7 C         140.1699  142.3216  167.0805 C.ar    1  UNL1        0.0041
      8 C         140.4902  142.8771  168.4365 C.ar    1  UNL1        0.0001
      9 C         140.3542  142.0106  169.6533 C.ar    1  UNL1        0.0000
     10 C         139.8977  140.5884  169.5141 C.ar    1  UNL1        0.0001
     11 C         139.5774  140.0329  168.1580 C.ar    1  UNL1        0.0045
     12 C         139.7135  140.8996  166.9412 C.ar    1  UNL1        0.0534
     13 C         139.3931  140.3441  165.5852 C.2     1  UNL1        0.2461
     14 O         138.0696  140.6430  164.9458 O.2     1  UNL1       -0.2701
     15 N         140.3963  139.4896  164.8686 N.am    1  UNL1       -0.2968
     16 H         141.2650  139.2933  165.2883 H       1  UNL1        0.1501
     17 C         140.0760  138.9341  163.5126 C.3     1  UNL1        0.1188
     18 C         140.2616  139.7842  162.2908 C.ar    1  UNL1        0.0251
     19 C         140.8891  141.1415  162.4098 C.ar    1  UNL1        0.0019
     20 C         141.0748  141.9916  161.1881 C.ar    1  UNL1        0.0295
     21 C         140.6330  141.4845  159.8473 C.ar    1  UNL1        0.1424
     22 F         140.8186  142.3347  158.6255 F       1  UNL1       -0.2041
     23 C         140.0055  140.1273  159.7283 C.ar    1  UNL1        0.0590
     24 C         139.8198  139.2771  160.9501 C.ar    1  UNL1        0.1400
     25 F         139.1924  137.9199  160.8310 F       1  UNL1       -0.2044
     26 C         142.8365  142.6133  165.7373 C.3     1  UNL1        0.1163
     27 C         143.7200  140.2631  165.0695 C.2     1  UNL1        0.2271
     28 O         142.9508  139.6519  166.2030 O.2     1  UNL1       -0.2747
     29 N         143.6629  141.7438  164.8367 N.am    1  UNL1       -0.3001
     30 H         144.1678  142.1450  164.0927 H       1  UNL1        0.1498
     31 C         144.5464  139.3936  164.1689 C.3     1  UNL1        0.1113
     32 C         143.4982  139.0331  159.8076 C.ar    1  UNL1        0.1387
     33 C         143.2075  137.8989  160.7450 C.ar    1  UNL1        0.0366
     34 C         143.5569  138.0190  162.1988 C.ar    1  UNL1       -0.0007
     35 C         144.1970  139.2734  162.7151 C.ar    1  UNL1       -0.0129
     36 C         144.4878  140.4077  161.7777 C.ar    1  UNL1       -0.0007
     37 C         144.1384  140.2875  160.3239 C.ar    1  UNL1        0.0366
     38 C         142.4562  137.6823  157.8481 C.3     1  UNL1        0.2525
     39 O         143.1488  138.9130  158.3538 O.3     1  UNL1       -0.4714
@<TRIPOS>BOND
     1    38    39    1
     2    39    32    1
     3    32    33   ar
     4    33    34   ar
     5    34    35   ar
     6    35    31    1
     7    31    27    1
     8    27    28    2
     9    27    29   am
    10    29    26    1
    11    26     1    1
    12     1     2   ar
    13     2     3   ar
    14     3     4   ar
    15     4     5   ar
    16     5     6   ar
    17     6     7    1
    18     7     8   ar
    19     8     9   ar
    20     9    10   ar
    21    10    11   ar
    22    11    12   ar
    23    12    13    1
    24    13    14    2
    25    13    15   am
    26    15    17    1
    27    17    18    1
    28    18    19   ar
    29    19    20   ar
    30    20    21   ar
    31    21    22    1
    32    21    23   ar
    33    23    24   ar
    34    24    25    1
    35    35    36   ar
    36    36    37   ar
    37    37    32   ar
    38     6     1   ar
    39    12     7   ar
    40    24    18   ar
    41    29    30    1
    42    15    16    1
@<TRIPOS>MOLECULE
*****
 39 42 0 0 0
SMALL
GASTEIGER

@<TRIPOS>ATOM
      1 C         139.1511  141.5073  165.4889 C.ar    1  UNL1       -0.0026
      2 C         138.1015  141.6224  164.4236 C.ar    1  UNL1       -0.0026
      3 C         137.7365  142.9689  163.8725 C.ar    1  UNL1       -0.0003
      4 C         138.4212  144.2004  164.3868 C.ar    1  UNL1       -0.0000
      5 C         139.4710  144.0854  165.4521 C.ar    1  UNL1       -0.0003
      6 C         139.8359  142.7389  166.0032 C.ar    1  UNL1       -0.0022
      7 C         140.8856  142.6238  167.0685 C.ar    1  UNL1        0.0041
      8 C         140.4948  142.6800  168.5156 C.ar    1  UNL1        0.0001
      9 C         141.5444  142.5649  169.5809 C.ar    1  UNL1        0.0000
     10 C         142.9850  142.3938  169.1992 C.ar    1  UNL1        0.0001
     11 C         143.3757  142.3377  167.7520 C.ar    1  UNL1        0.0045
     12 C         142.3260  142.4527  166.6867 C.ar    1  UNL1        0.0534
     13 C         142.7168  142.3966  165.2396 C.2     1  UNL1        0.2461
     14 O         142.6826  141.0900  164.5036 O.2     1  UNL1       -0.2701
     15 N         143.1417  143.6471  164.5284 N.am    1  UNL1       -0.2968
     16 H         143.1641  144.5047  165.0115 H       1  UNL1        0.1501
     17 C         143.5324  143.5910  163.0813 C.3     1  UNL1        0.1188
     18 C         142.4737  143.5453  162.0198 C.ar    1  UNL1        0.0251
     19 C         142.4895  142.4536  160.9911 C.ar    1  UNL1        0.0019
     20 C         141.4308  142.4080  159.9296 C.ar    1  UNL1        0.0295
     21 C         140.3561  143.4540  159.8966 C.ar    1  UNL1        0.1424
     22 F         139.2974  143.4083  158.8351 F       1  UNL1       -0.2041
     23 C         140.3403  144.5456  160.9252 C.ar    1  UNL1        0.0590
     24 C         141.3991  144.5913  161.9868 C.ar    1  UNL1        0.1400
     25 F         141.3832  145.6830  163.0153 F       1  UNL1       -0.2044
     26 C         139.5160  140.1608  166.0399 C.3     1  UNL1        0.1163
     27 C         140.2005  138.2638  164.4019 C.2     1  UNL1        0.2271
     28 O         138.7546  138.0058  164.0967 O.2     1  UNL1       -0.2747
     29 N         140.5812  139.3413  165.3736 N.am    1  UNL1       -0.3001
     30 H         141.5301  139.5106  165.5739 H       1  UNL1        0.1498
     31 C         141.2655  137.4443  163.7356 C.3     1  UNL1        0.1113
     32 C         143.2338  138.9411  159.9759 C.ar    1  UNL1        0.1387
     33 C         144.0329  138.8057  161.2380 C.ar    1  UNL1        0.0366
     34 C         143.3768  138.3068  162.4913 C.ar    1  UNL1       -0.0007
     35 C         141.9216  137.9432  162.4823 C.ar    1  UNL1       -0.0129
     36 C         141.1225  138.0786  161.2202 C.ar    1  UNL1       -0.0007
     37 C         141.7786  138.5775  159.9670 C.ar    1  UNL1        0.0366
     38 C         143.0531  139.9890  157.6054 C.3     1  UNL1        0.2525
     39 O         143.8899  139.4400  158.7226 O.3     1  UNL1       -0.4714
@<TRIPOS>BOND
     1    38    39    1
     2    39    32    1
     3    32    33   ar
     4    33    34   ar
     5    34    35   ar
     6    35    31    1
     7    31    27    1
     8    27    28    2
     9    27    29   am
    10    29    26    1
    11    26     1    1
    12     1     2   ar
    13     2     3   ar
    14     3     4   ar
    15     4     5   ar
    16     5     6   ar
    17     6     7    1
    18     7     8   ar
    19     8     9   ar
    20     9    10   ar
    21    10    11   ar
    22    11    12   ar
    23    12    13    1
    24    13    14    2
    25    13    15   am
    26    15    17    1
    27    17    18    1
    28    18    19   ar
    29    19    20   ar
    30    20    21   ar
    31    21    22    1
    32    21    23   ar
    33    23    24   ar
    34    24    25    1
    35    35    36   ar
    36    36    37   ar
    37    37    32   ar
    38     6     1   ar
    39    12     7   ar
    40    24    18   ar
    41    29    30    1
    42    15    16    1
@<TRIPOS>MOLECULE
*****
 39 42 0 0 0
SMALL
GASTEIGER

@<TRIPOS>ATOM
      1 C         141.7367  143.0988  165.4037 C.ar    1  UNL1       -0.0026
      2 C         141.9822  143.9493  164.1927 C.ar    1  UNL1       -0.0026
      3 C         140.8840  144.8139  163.6484 C.ar    1  UNL1       -0.0003
      4 C         139.5404  144.8282  164.3151 C.ar    1  UNL1       -0.0000
      5 C         139.2949  143.9777  165.5261 C.ar    1  UNL1       -0.0003
      6 C         140.3931  143.1130  166.0704 C.ar    1  UNL1       -0.0022
      7 C         140.1477  142.2626  167.2814 C.ar    1  UNL1        0.0041
      8 C         140.3753  142.8265  168.6526 C.ar    1  UNL1        0.0001
      9 C         140.1299  141.9761  169.8635 C.ar    1  UNL1        0.0000
     10 C         139.6568  140.5616  169.7033 C.ar    1  UNL1        0.0001
     11 C         139.4292  139.9977  168.3321 C.ar    1  UNL1        0.0045
     12 C         139.6747  140.8482  167.1211 C.ar    1  UNL1        0.0534
     13 C         139.4471  140.2843  165.7499 C.2     1  UNL1        0.2461
     14 O         140.5050  139.4426  165.1001 O.2     1  UNL1       -0.2701
     15 N         138.1615  140.5620  165.0286 N.am    1  UNL1       -0.2968
     16 H         137.4671  141.1144  165.4552 H       1  UNL1        0.1501
     17 C         137.9339  139.9981  163.6575 C.3     1  UNL1        0.1188
     18 C         138.4990  140.6961  162.4561 C.ar    1  UNL1        0.0251
     19 C         139.4344  139.9681  161.5367 C.ar    1  UNL1        0.0019
     20 C         139.9996  140.6662  160.3353 C.ar    1  UNL1        0.0295
     21 C         139.6294  142.0922  160.0533 C.ar    1  UNL1        0.1424
     22 F         140.1946  142.7902  158.8520 F       1  UNL1       -0.2041
     23 C         138.6941  142.8201  160.9727 C.ar    1  UNL1        0.0590
     24 C         138.1289  142.1221  162.1741 C.ar    1  UNL1        0.1400
     25 F         137.1936  142.8501  163.0934 F       1  UNL1       -0.2044
     26 C         142.8349  142.2341  165.9480 C.3     1  UNL1        0.1163
     27 C         144.3808  140.9536  164.2985 C.2     1  UNL1        0.2271
     28 O         145.1710  142.2073  164.0659 O.2     1  UNL1       -0.2747
     29 N         143.2128  140.9670  165.2396 N.am    1  UNL1       -0.3001
     30 H         142.6942  140.1442  165.3922 H       1  UNL1        0.1498
     31 C         144.7587  139.6867  163.5901 C.3     1  UNL1        0.1113
     32 C         143.0701  138.7980  159.5147 C.ar    1  UNL1        0.1387
     33 C         143.6111  140.1630  159.8210 C.ar    1  UNL1        0.0366
     34 C         144.1740  140.4593  161.1795 C.ar    1  UNL1       -0.0007
     35 C         144.1958  139.3904  162.2316 C.ar    1  UNL1       -0.0129
     36 C         143.6548  138.0254  161.9253 C.ar    1  UNL1       -0.0007
     37 C         143.0920  137.7291  160.5668 C.ar    1  UNL1        0.0366
     38 C         142.7352  137.1596  157.5263 C.3     1  UNL1        0.2525
     39 O         142.5073  138.5017  158.1562 O.3     1  UNL1       -0.4714
@<TRIPOS>BOND
     1    38    39    1
     2    39    32    1
     3    32    33   ar
     4    33    34   ar
     5    34    35   ar
     6    35    31    1
     7    31    27    1
     8    27    28    2
     9    27    29   am
    10    29    26    1
    11    26     1    1
    12     1     2   ar
    13     2     3   ar
    14     3     4   ar
    15     4     5   ar
    16     5     6   ar
    17     6     7    1
    18     7     8   ar
    19     8     9   ar
    20     9    10   ar
    21    10    11   ar
    22    11    12   ar
    23    12    13    1
    24    13    14    2
    25    13    15   am
    26    15    17    1
    27    17    18    1
    28    18    19   ar
    29    19    20   ar
    30    20    21   ar
    31    21    22    1
    32    21    23   ar
    33    23    24   ar
    34    24    25    1
    35    35    36   ar
    36    36    37   ar
    37    37    32   ar
    38     6     1   ar
    39    12     7   ar
    40    24    18   ar
    41    29    30    1
    42    15    16    1
