@<TRIPOS>MOLECULE
*****
 36 39 0 0 0
SMALL
GASTEIGER

@<TRIPOS>ATOM
      1 C         142.8241  138.3949  161.0871 C.3     1  UNL1        0.0747
      2 C         141.7318  139.3316  161.5110 C.3     1  UNL1        0.0369
      3 C         141.9876  140.3433  162.5884 C.3     1  UNL1        0.0741
      4 N         143.3356  140.4184  163.2421 N.3     1  UNL1       -0.2689
      5 C         144.4278  139.4817  162.8183 C.3     1  UNL1        0.0741
      6 C         144.1720  138.4699  161.7408 C.3     1  UNL1        0.0369
      7 O         143.3181  139.1052  158.2146 O.2     1  UNL1       -0.2668
      8 C         142.8153  137.7383  158.5734 C.2     1  UNL1        0.2806
      9 N         142.5683  137.3832  160.0097 N.am    1  UNL1       -0.2999
     10 H         142.2383  136.4860  160.2452 H       1  UNL1        0.1498
     11 C         142.5596  136.7265  157.4959 C.ar    1  UNL1        0.2014
     12 C         141.4633  136.9547  156.4978 C.ar    1  UNL1        0.0843
     13 C         141.2075  135.9429  155.4204 C.ar    1  UNL1        0.2018
     14 O         140.1113  136.1711  154.4223 O.2     1  UNL1       -0.2864
     15 C         142.0480  134.7030  155.3410 C.ar    1  UNL1        0.0737
     16 C         141.7922  133.6912  154.2636 C.ar    1  UNL1        0.0085
     17 C         142.6326  132.4513  154.1843 C.ar    1  UNL1        0.0299
     18 C         143.7288  132.2232  155.1824 C.ar    1  UNL1        0.1432
     19 F         144.5693  130.9832  155.1031 F       1  UNL1       -0.2041
     20 C         143.9846  133.2349  156.2598 C.ar    1  UNL1        0.0672
     21 C         143.1442  134.4748  156.3392 C.ar    1  UNL1        0.1508
     22 O         143.4000  135.4866  157.4166 O.2     1  UNL1       -0.4486
     23 C         143.5914  141.4301  164.3196 C.3     1  UNL1        0.0992
     24 C         143.2398  141.1147  165.7433 C.ar    1  UNL1       -0.0037
     25 C         142.9457  139.7006  166.1476 C.ar    1  UNL1        0.0003
     26 C         142.5941  139.3852  167.5713 C.ar    1  UNL1        0.0390
     27 C         142.5366  140.4840  168.5907 C.ar    1  UNL1        0.1662
     28 C         142.8308  141.8982  168.1864 C.ar    1  UNL1        0.1735
     29 F         142.7733  142.9971  169.2058 F       1  UNL1       -0.2010
     30 C         143.1823  142.2136  166.7627 C.ar    1  UNL1        0.0299
     31 O         142.1851  140.1687  170.0144 O.3     1  UNL1       -0.4643
     32 C         140.7536  140.2113  170.4605 C.3     1  UNL1        0.3082
     33 C         140.0507  141.5290  170.6008 C.3     1  UNL1        0.4380
     34 F         139.3478  142.8467  170.7410 F       1  UNL1       -0.1663
     35 F         141.2034  142.0587  171.4012 F       1  UNL1       -0.1663
     36 F         138.8980  140.9993  169.8004 F       1  UNL1       -0.1663
@<TRIPOS>BOND
     1     7     8    2
     2     8     9   am
     3     9     1    1
     4     1     2    1
     5     2     3    1
     6     3     4    1
     7     4    23    1
     8    23    24    1
     9    24    25   ar
    10    25    26   ar
    11    26    27   ar
    12    27    31    1
    13    31    32    1
    14    32    33    1
    15    33    34    1
    16    33    35    1
    17    33    36    1
    18    27    28   ar
    19    28    29    1
    20    28    30   ar
    21     4     5    1
    22     5     6    1
    23     8    11    1
    24    11    12   ar
    25    12    13   ar
    26    13    14    2
    27    13    15   ar
    28    15    16   ar
    29    16    17   ar
    30    17    18   ar
    31    18    19    1
    32    18    20   ar
    33    20    21   ar
    34    21    22   ar
    35     6     1    1
    36    22    11   ar
    37    30    24   ar
    38    21    15   ar
    39     9    10    1
@<TRIPOS>MOLECULE
*****
 36 39 0 0 0
SMALL
GASTEIGER

@<TRIPOS>ATOM
      1 C         143.7158  139.8734  159.2293 C.3     1  UNL1        0.0747
      2 C         143.5037  141.2932  158.7944 C.3     1  UNL1        0.0369
      3 C         143.5934  142.4059  159.7963 C.3     1  UNL1        0.0741
      4 N         143.8954  142.0988  161.2332 N.3     1  UNL1       -0.2689
      5 C         144.1075  140.6790  161.6681 C.3     1  UNL1        0.0741
      6 C         144.0178  139.5663  160.6661 C.3     1  UNL1        0.0369
      7 O         141.1600  138.3326  158.9237 O.2     1  UNL1       -0.2668
      8 C         142.3481  137.9903  158.0746 C.2     1  UNL1        0.2806
      9 N         143.6261  138.7607  158.2274 N.am    1  UNL1       -0.2999
     10 H         144.4059  138.5361  157.6701 H       1  UNL1        0.1498
     11 C         142.2584  136.8776  157.0726 C.ar    1  UNL1        0.2014
     12 C         141.2788  136.9653  155.9401 C.ar    1  UNL1        0.0843
     13 C         141.1890  135.8527  154.9382 C.ar    1  UNL1        0.2018
     14 O         140.2094  135.9404  153.8057 O.2     1  UNL1       -0.2864
     15 C         142.0790  134.6522  155.0688 C.ar    1  UNL1        0.0737
     16 C         141.9892  133.5396  154.0668 C.ar    1  UNL1        0.0085
     17 C         142.8792  132.3392  154.1974 C.ar    1  UNL1        0.0299
     18 C         143.8588  132.2515  155.3299 C.ar    1  UNL1        0.1432
     19 F         144.7488  131.0510  155.4605 F       1  UNL1       -0.2041
     20 C         143.9486  133.3641  156.3318 C.ar    1  UNL1        0.0672
     21 C         143.0586  134.5645  156.2013 C.ar    1  UNL1        0.1508
     22 O         143.1484  135.6772  157.2032 O.2     1  UNL1       -0.4486
     23 C         143.9851  143.2115  162.2351 C.3     1  UNL1        0.0992
     24 C         142.7504  143.6841  162.9437 C.ar    1  UNL1       -0.0037
     25 C         141.9258  144.7908  162.3563 C.ar    1  UNL1        0.0003
     26 C         140.6911  145.2634  163.0650 C.ar    1  UNL1        0.0390
     27 C         140.2810  144.6293  164.3610 C.ar    1  UNL1        0.1662
     28 C         141.1056  143.5225  164.9483 C.ar    1  UNL1        0.1735
     29 F         140.6956  142.8883  166.2444 F       1  UNL1       -0.2010
     30 C         142.3403  143.0499  164.2397 C.ar    1  UNL1        0.0299
     31 O         139.0463  145.1019  165.0696 O.3     1  UNL1       -0.4643
     32 C         137.7805  144.3016  164.9854 C.3     1  UNL1        0.3082
     33 C         137.5479  143.3865  163.8198 C.3     1  UNL1        0.4380
     34 F         137.3152  142.4714  162.6543 F       1  UNL1       -0.1663
     35 F         137.7770  142.1986  164.7067 F       1  UNL1       -0.1663
     36 F         137.3187  144.5743  162.9329 F       1  UNL1       -0.1663
@<TRIPOS>BOND
     1     7     8    2
     2     8     9   am
     3     9     1    1
     4     1     2    1
     5     2     3    1
     6     3     4    1
     7     4    23    1
     8    23    24    1
     9    24    25   ar
    10    25    26   ar
    11    26    27   ar
    12    27    31    1
    13    31    32    1
    14    32    33    1
    15    33    34    1
    16    33    35    1
    17    33    36    1
    18    27    28   ar
    19    28    29    1
    20    28    30   ar
    21     4     5    1
    22     5     6    1
    23     8    11    1
    24    11    12   ar
    25    12    13   ar
    26    13    14    2
    27    13    15   ar
    28    15    16   ar
    29    16    17   ar
    30    17    18   ar
    31    18    19    1
    32    18    20   ar
    33    20    21   ar
    34    21    22   ar
    35     6     1    1
    36    22    11   ar
    37    30    24   ar
    38    21    15   ar
    39     9    10    1
@<TRIPOS>MOLECULE
*****
 36 39 0 0 0
SMALL
GASTEIGER

@<TRIPOS>ATOM
      1 C         142.8536  138.4559  160.6341 C.3     1  UNL1        0.0747
      2 C         144.1613  139.1164  160.9560 C.3     1  UNL1        0.0369
      3 C         144.2093  140.2419  161.9465 C.3     1  UNL1        0.0741
      4 N         142.9496  140.7068  162.6151 N.3     1  UNL1       -0.2689
      5 C         141.6419  140.0462  162.2932 C.3     1  UNL1        0.0741
      6 C         141.5939  138.9207  161.3027 C.3     1  UNL1        0.0369
      7 O         142.4506  139.0393  157.7191 O.2     1  UNL1       -0.2668
      8 C         142.6041  137.6222  158.1861 C.2     1  UNL1        0.2806
      9 N         142.8056  137.3305  159.6436 N.am    1  UNL1       -0.2999
     10 H         142.9064  136.4003  159.9501 H       1  UNL1        0.1498
     11 C         142.5561  136.4967  157.1956 C.ar    1  UNL1        0.2014
     12 C         141.6305  136.5732  156.0177 C.ar    1  UNL1        0.0843
     13 C         141.5825  135.4477  155.0273 C.ar    1  UNL1        0.2018
     14 O         140.6569  135.5242  153.8494 O.2     1  UNL1       -0.2864
     15 C         142.4601  134.2457  155.2147 C.ar    1  UNL1        0.0737
     16 C         142.4121  133.1203  154.2242 C.ar    1  UNL1        0.0085
     17 C         143.2896  131.9184  154.4116 C.ar    1  UNL1        0.0299
     18 C         144.2152  131.8418  155.5895 C.ar    1  UNL1        0.1432
     19 F         145.0928  130.6398  155.7769 F       1  UNL1       -0.2041
     20 C         144.2633  132.9673  156.5800 C.ar    1  UNL1        0.0672
     21 C         143.3857  134.1692  156.3926 C.ar    1  UNL1        0.1508
     22 O         143.4337  135.2947  157.3831 O.2     1  UNL1       -0.4486
     23 C         142.9976  141.8322  163.6056 C.3     1  UNL1        0.0992
     24 C         142.4822  141.6272  164.9993 C.ar    1  UNL1       -0.0037
     25 C         142.8662  140.3976  165.7677 C.ar    1  UNL1        0.0003
     26 C         142.3508  140.1927  167.1614 C.ar    1  UNL1        0.0390
     27 C         141.4514  141.2173  167.7866 C.ar    1  UNL1        0.1662
     28 C         141.0673  142.4469  167.0182 C.ar    1  UNL1        0.1735
     29 F         140.1678  143.4716  167.6435 F       1  UNL1       -0.2010
     30 C         141.5827  142.6519  165.6245 C.ar    1  UNL1        0.0299
     31 O         140.9360  141.0124  169.1803 O.3     1  UNL1       -0.4643
     32 C         141.7445  141.4775  170.3549 C.3     1  UNL1        0.3082
     33 C         143.0977  142.0878  170.1395 C.3     1  UNL1        0.4380
     34 F         144.4510  142.6980  169.9242 F       1  UNL1       -0.1663
     35 F         143.7303  140.7351  170.2813 F       1  UNL1       -0.1663
     36 F         142.4652  143.4405  169.9978 F       1  UNL1       -0.1663
@<TRIPOS>BOND
     1     7     8    2
     2     8     9   am
     3     9     1    1
     4     1     2    1
     5     2     3    1
     6     3     4    1
     7     4    23    1
     8    23    24    1
     9    24    25   ar
    10    25    26   ar
    11    26    27   ar
    12    27    31    1
    13    31    32    1
    14    32    33    1
    15    33    34    1
    16    33    35    1
    17    33    36    1
    18    27    28   ar
    19    28    29    1
    20    28    30   ar
    21     4     5    1
    22     5     6    1
    23     8    11    1
    24    11    12   ar
    25    12    13   ar
    26    13    14    2
    27    13    15   ar
    28    15    16   ar
    29    16    17   ar
    30    17    18   ar
    31    18    19    1
    32    18    20   ar
    33    20    21   ar
    34    21    22   ar
    35     6     1    1
    36    22    11   ar
    37    30    24   ar
    38    21    15   ar
    39     9    10    1
@<TRIPOS>MOLECULE
*****
 36 39 0 0 0
SMALL
GASTEIGER

@<TRIPOS>ATOM
      1 C         143.7090  139.8857  160.0411 C.3     1  UNL1        0.0747
      2 C         144.0212  139.4690  161.4478 C.3     1  UNL1        0.0369
      3 C         144.0981  140.4989  162.5356 C.3     1  UNL1        0.0741
      4 N         143.8630  141.9457  162.2166 N.3     1  UNL1       -0.2689
      5 C         143.5509  142.3624  160.8098 C.3     1  UNL1        0.0741
      6 C         143.4739  141.3323  159.7221 C.3     1  UNL1        0.0369
      7 O         141.1410  138.4161  159.5459 O.2     1  UNL1       -0.2668
      8 C         142.3480  138.1209  158.7057 C.2     1  UNL1        0.2806
      9 N         143.6320  138.8557  158.9533 N.am    1  UNL1       -0.2999
     10 H         144.4243  138.6620  158.4019 H       1  UNL1        0.1498
     11 C         142.2711  137.0909  157.6179 C.ar    1  UNL1        0.2014
     12 C         141.3179  137.2772  156.4748 C.ar    1  UNL1        0.0843
     13 C         141.2409  136.2473  155.3870 C.ar    1  UNL1        0.2018
     14 O         140.2878  136.4335  154.2439 O.2     1  UNL1       -0.2864
     15 C         142.1171  135.0310  155.4423 C.ar    1  UNL1        0.0737
     16 C         142.0402  134.0011  154.3546 C.ar    1  UNL1        0.0085
     17 C         142.9163  132.7849  154.4100 C.ar    1  UNL1        0.0299
     18 C         143.8695  132.5986  155.5531 C.ar    1  UNL1        0.1432
     19 F         144.7457  131.3823  155.6084 F       1  UNL1       -0.2041
     20 C         143.9465  133.6285  156.6409 C.ar    1  UNL1        0.0672
     21 C         143.0703  134.8447  156.5855 C.ar    1  UNL1        0.1508
     22 O         143.1472  135.8747  157.6733 O.2     1  UNL1       -0.4486
     23 C         143.9400  142.9756  163.3043 C.3     1  UNL1        0.0992
     24 C         143.1222  142.8123  164.5511 C.ar    1  UNL1       -0.0037
     25 C         141.6254  142.8795  164.4804 C.ar    1  UNL1        0.0003
     26 C         140.8076  142.7161  165.7272 C.ar    1  UNL1        0.0390
     27 C         141.4866  142.4856  167.0447 C.ar    1  UNL1        0.1662
     28 C         142.9834  142.4185  167.1154 C.ar    1  UNL1        0.1735
     29 F         143.6624  142.1879  168.4329 F       1  UNL1       -0.2010
     30 C         143.8012  142.5818  165.8686 C.ar    1  UNL1        0.0299
     31 O         140.6688  142.3223  168.2915 O.3     1  UNL1       -0.4643
     32 C         140.5063  140.9652  168.9095 C.3     1  UNL1        0.3082
     33 C         139.2121  140.5916  169.5693 C.3     1  UNL1        0.4380
     34 F         137.9178  140.2180  170.2291 F       1  UNL1       -0.1663
     35 F         138.9109  139.6471  168.4436 F       1  UNL1       -0.1663
     36 F         139.5133  141.5361  170.6950 F       1  UNL1       -0.1663
@<TRIPOS>BOND
     1     7     8    2
     2     8     9   am
     3     9     1    1
     4     1     2    1
     5     2     3    1
     6     3     4    1
     7     4    23    1
     8    23    24    1
     9    24    25   ar
    10    25    26   ar
    11    26    27   ar
    12    27    31    1
    13    31    32    1
    14    32    33    1
    15    33    34    1
    16    33    35    1
    17    33    36    1
    18    27    28   ar
    19    28    29    1
    20    28    30   ar
    21     4     5    1
    22     5     6    1
    23     8    11    1
    24    11    12   ar
    25    12    13   ar
    26    13    14    2
    27    13    15   ar
    28    15    16   ar
    29    16    17   ar
    30    17    18   ar
    31    18    19    1
    32    18    20   ar
    33    20    21   ar
    34    21    22   ar
    35     6     1    1
    36    22    11   ar
    37    30    24   ar
    38    21    15   ar
    39     9    10    1
@<TRIPOS>MOLECULE
*****
 36 39 0 0 0
SMALL
GASTEIGER

@<TRIPOS>ATOM
      1 C         140.6738  139.2915  160.9077 C.3     1  UNL1        0.0747
      2 C         142.0715  139.3658  160.3685 C.3     1  UNL1        0.0369
      3 C         142.3534  138.9492  158.9554 C.3     1  UNL1        0.0741
      4 N         141.2375  138.4584  158.0814 N.3     1  UNL1       -0.2689
      5 C         139.8397  138.3841  158.6206 C.3     1  UNL1        0.0741
      6 C         139.5579  138.8007  160.0338 C.3     1  UNL1        0.0369
      7 O         140.3446  137.2139  163.0467 O.2     1  UNL1       -0.2668
      8 C         140.2273  138.6693  163.3903 C.2     1  UNL1        0.2806
      9 N         140.3919  139.7081  162.3208 N.am    1  UNL1       -0.2999
     10 H         140.3150  140.6633  162.5464 H       1  UNL1        0.1498
     11 C         139.9455  139.0859  164.8035 C.ar    1  UNL1        0.2014
     12 C         138.8024  138.4687  165.5536 C.ar    1  UNL1        0.0843
     13 C         138.5205  138.8853  166.9667 C.ar    1  UNL1        0.2018
     14 O         137.3775  138.2681  167.7167 O.2     1  UNL1       -0.2864
     15 C         139.3817  139.9191  167.6298 C.ar    1  UNL1        0.0737
     16 C         139.0998  140.3357  169.0430 C.ar    1  UNL1        0.0085
     17 C         139.9609  141.3695  169.7060 C.ar    1  UNL1        0.0299
     18 C         141.1039  141.9867  168.9560 C.ar    1  UNL1        0.1432
     19 F         141.9651  143.0205  169.6191 F       1  UNL1       -0.2041
     20 C         141.3858  141.5701  167.5429 C.ar    1  UNL1        0.0672
     21 C         140.5247  140.5363  166.8798 C.ar    1  UNL1        0.1508
     22 O         140.8066  140.1197  165.4666 O.2     1  UNL1       -0.4486
     23 C         141.5193  138.0418  156.6682 C.3     1  UNL1        0.0992
     24 C         141.8481  136.6112  156.3594 C.ar    1  UNL1       -0.0037
     25 C         141.0339  135.8553  155.3517 C.ar    1  UNL1        0.0003
     26 C         141.3627  134.4247  155.0429 C.ar    1  UNL1        0.0390
     27 C         142.5057  133.7501  155.7418 C.ar    1  UNL1        0.1662
     28 C         143.3198  134.5061  156.7495 C.ar    1  UNL1        0.1735
     29 F         144.4629  133.8315  157.4485 F       1  UNL1       -0.2010
     30 C         142.9911  135.9366  157.0583 C.ar    1  UNL1        0.0299
     31 O         142.8344  132.3195  155.4329 O.3     1  UNL1       -0.4643
     32 C         142.7375  131.2786  156.5086 C.3     1  UNL1        0.3082
     33 C         143.8923  130.3565  156.7662 C.3     1  UNL1        0.4380
     34 F         145.0470  129.4344  157.0238 F       1  UNL1       -0.1663
     35 F         143.0147  129.4984  157.6285 F       1  UNL1       -0.1663
     36 F         144.7698  131.2146  155.9039 F       1  UNL1       -0.1663
@<TRIPOS>BOND
     1     7     8    2
     2     8     9   am
     3     9     1    1
     4     1     2    1
     5     2     3    1
     6     3     4    1
     7     4    23    1
     8    23    24    1
     9    24    25   ar
    10    25    26   ar
    11    26    27   ar
    12    27    31    1
    13    31    32    1
    14    32    33    1
    15    33    34    1
    16    33    35    1
    17    33    36    1
    18    27    28   ar
    19    28    29    1
    20    28    30   ar
    21     4     5    1
    22     5     6    1
    23     8    11    1
    24    11    12   ar
    25    12    13   ar
    26    13    14    2
    27    13    15   ar
    28    15    16   ar
    29    16    17   ar
    30    17    18   ar
    31    18    19    1
    32    18    20   ar
    33    20    21   ar
    34    21    22   ar
    35     6     1    1
    36    22    11   ar
    37    30    24   ar
    38    21    15   ar
    39     9    10    1
@<TRIPOS>MOLECULE
*****
 36 39 0 0 0
SMALL
GASTEIGER

@<TRIPOS>ATOM
      1 C         138.0504  139.3201  161.4535 C.3     1  UNL1        0.0747
      2 C         137.6997  140.2946  162.5385 C.3     1  UNL1        0.0369
      3 C         138.1707  140.0554  163.9424 C.3     1  UNL1        0.0741
      4 N         138.9923  138.8416  164.2613 N.3     1  UNL1       -0.2689
      5 C         139.3431  137.8671  163.1763 C.3     1  UNL1        0.0741
      6 C         138.8721  138.1063  161.7724 C.3     1  UNL1        0.0369
      7 O         139.8230  140.7484  159.4995 O.2     1  UNL1       -0.2668
      8 C         138.4658  140.2734  159.0726 C.2     1  UNL1        0.2806
      9 N         137.5795  139.5592  160.0496 N.am    1  UNL1       -0.2999
     10 H         136.6887  139.2475  159.7693 H       1  UNL1        0.1498
     11 C         137.9948  140.5126  157.6686 C.ar    1  UNL1        0.2014
     12 C         138.9902  140.6188  156.5515 C.ar    1  UNL1        0.0843
     13 C         138.5192  140.8579  155.1476 C.ar    1  UNL1        0.2018
     14 O         139.5146  140.9641  154.0305 O.2     1  UNL1       -0.2864
     15 C         137.0529  140.9909  154.8608 C.ar    1  UNL1        0.0737
     16 C         136.5820  141.2301  153.4569 C.ar    1  UNL1        0.0085
     17 C         135.1157  141.3630  153.1701 C.ar    1  UNL1        0.0299
     18 C         134.1203  141.2569  154.2872 C.ar    1  UNL1        0.1432
     19 F         132.6540  141.3898  154.0004 F       1  UNL1       -0.2041
     20 C         134.5912  141.0177  155.6911 C.ar    1  UNL1        0.0672
     21 C         136.0575  140.8847  155.9779 C.ar    1  UNL1        0.1508
     22 O         136.5285  140.6456  157.3819 O.2     1  UNL1       -0.4486
     23 C         139.4633  138.6025  165.6652 C.3     1  UNL1        0.0992
     24 C         139.8255  139.7637  166.5429 C.ar    1  UNL1       -0.0037
     25 C         140.7328  140.8404  166.0257 C.ar    1  UNL1        0.0003
     26 C         141.0950  142.0016  166.9034 C.ar    1  UNL1        0.0390
     27 C         140.5499  142.0862  168.2983 C.ar    1  UNL1        0.1662
     28 C         139.6426  141.0095  168.8154 C.ar    1  UNL1        0.1735
     29 F         139.0974  141.0941  170.2103 F       1  UNL1       -0.2010
     30 C         139.2804  139.8483  167.9377 C.ar    1  UNL1        0.0299
     31 O         140.9121  143.2474  169.1759 O.3     1  UNL1       -0.4643
     32 C         142.1072  143.1614  170.0783 C.3     1  UNL1        0.3082
     33 C         142.8808  141.8802  170.1784 C.3     1  UNL1        0.4380
     34 F         143.6544  140.5990  170.2784 F       1  UNL1       -0.1663
     35 F         143.7982  142.3490  169.0882 F       1  UNL1       -0.1663
     36 F         141.9634  141.4114  171.2686 F       1  UNL1       -0.1663
@<TRIPOS>BOND
     1     7     8    2
     2     8     9   am
     3     9     1    1
     4     1     2    1
     5     2     3    1
     6     3     4    1
     7     4    23    1
     8    23    24    1
     9    24    25   ar
    10    25    26   ar
    11    26    27   ar
    12    27    31    1
    13    31    32    1
    14    32    33    1
    15    33    34    1
    16    33    35    1
    17    33    36    1
    18    27    28   ar
    19    28    29    1
    20    28    30   ar
    21     4     5    1
    22     5     6    1
    23     8    11    1
    24    11    12   ar
    25    12    13   ar
    26    13    14    2
    27    13    15   ar
    28    15    16   ar
    29    16    17   ar
    30    17    18   ar
    31    18    19    1
    32    18    20   ar
    33    20    21   ar
    34    21    22   ar
    35     6     1    1
    36    22    11   ar
    37    30    24   ar
    38    21    15   ar
    39     9    10    1
@<TRIPOS>MOLECULE
*****
 36 39 0 0 0
SMALL
GASTEIGER

@<TRIPOS>ATOM
      1 C         143.1296  139.0144  159.7371 C.3     1  UNL1        0.0747
      2 C         141.6405  138.8483  159.8080 C.3     1  UNL1        0.0369
      3 C         141.0093  138.2566  161.0333 C.3     1  UNL1        0.0741
      4 N         141.8673  137.8310  162.1878 N.3     1  UNL1       -0.2689
      5 C         143.3564  137.9971  162.1170 C.3     1  UNL1        0.0741
      6 C         143.9875  138.5888  160.8915 C.3     1  UNL1        0.0369
      7 O         143.5379  141.9801  159.5433 O.2     1  UNL1       -0.2668
      8 C         143.9649  141.0890  158.4148 C.2     1  UNL1        0.2806
      9 N         143.7607  139.6061  158.5118 N.am    1  UNL1       -0.2999
     10 H         144.0410  139.0212  157.7711 H       1  UNL1        0.1498
     11 C         144.5961  141.6806  157.1894 C.ar    1  UNL1        0.2014
     12 C         143.7559  142.4380  156.2043 C.ar    1  UNL1        0.0843
     13 C         144.3870  143.0297  154.9789 C.ar    1  UNL1        0.2018
     14 O         143.5469  143.7870  153.9938 O.2     1  UNL1       -0.2864
     15 C         145.8584  142.8640  154.7386 C.ar    1  UNL1        0.0737
     16 C         146.4895  143.4556  153.5133 C.ar    1  UNL1        0.0085
     17 C         147.9608  143.2899  153.2730 C.ar    1  UNL1        0.0299
     18 C         148.8010  142.5325  154.2582 C.ar    1  UNL1        0.1432
     19 F         150.2724  142.3669  154.0179 F       1  UNL1       -0.2041
     20 C         148.1699  141.9409  155.4835 C.ar    1  UNL1        0.0672
     21 C         146.6986  142.1066  155.7238 C.ar    1  UNL1        0.1508
     22 O         146.0674  141.5149  156.9492 O.2     1  UNL1       -0.4486
     23 C         141.2361  137.2393  163.4132 C.3     1  UNL1        0.0992
     24 C         140.8155  138.1297  164.5446 C.ar    1  UNL1       -0.0037
     25 C         141.8242  139.0098  165.2213 C.ar    1  UNL1        0.0003
     26 C         141.4036  139.9003  166.3527 C.ar    1  UNL1        0.0390
     27 C         139.9743  139.9107  166.8075 C.ar    1  UNL1        0.1662
     28 C         138.9656  139.0306  166.1309 C.ar    1  UNL1        0.1735
     29 F         137.5361  139.0410  166.5856 F       1  UNL1       -0.2010
     30 C         139.3862  138.1401  164.9994 C.ar    1  UNL1        0.0299
     31 O         139.5537  140.8011  167.9390 O.3     1  UNL1       -0.4643
     32 C         140.5869  141.3966  168.8487 C.3     1  UNL1        0.3082
     33 C         140.5018  142.8436  169.2349 C.3     1  UNL1        0.4380
     34 F         140.4166  144.2905  169.6210 F       1  UNL1       -0.1663
     35 F         140.7809  142.4789  170.6628 F       1  UNL1       -0.1663
     36 F         140.2227  143.2083  167.8069 F       1  UNL1       -0.1663
@<TRIPOS>BOND
     1     7     8    2
     2     8     9   am
     3     9     1    1
     4     1     2    1
     5     2     3    1
     6     3     4    1
     7     4    23    1
     8    23    24    1
     9    24    25   ar
    10    25    26   ar
    11    26    27   ar
    12    27    31    1
    13    31    32    1
    14    32    33    1
    15    33    34    1
    16    33    35    1
    17    33    36    1
    18    27    28   ar
    19    28    29    1
    20    28    30   ar
    21     4     5    1
    22     5     6    1
    23     8    11    1
    24    11    12   ar
    25    12    13   ar
    26    13    14    2
    27    13    15   ar
    28    15    16   ar
    29    16    17   ar
    30    17    18   ar
    31    18    19    1
    32    18    20   ar
    33    20    21   ar
    34    21    22   ar
    35     6     1    1
    36    22    11   ar
    37    30    24   ar
    38    21    15   ar
    39     9    10    1
@<TRIPOS>MOLECULE
*****
 36 39 0 0 0
SMALL
GASTEIGER

@<TRIPOS>ATOM
      1 C         138.8573  142.4619  160.7299 C.3     1  UNL1        0.0747
      2 C         139.5516  141.1377  160.8504 C.3     1  UNL1        0.0369
      3 C         139.4708  140.3624  162.1319 C.3     1  UNL1        0.0741
      4 N         138.6957  140.9113  163.2930 N.3     1  UNL1       -0.2689
      5 C         138.0014  142.2355  163.1725 C.3     1  UNL1        0.0741
      6 C         138.0823  143.0108  161.8909 C.3     1  UNL1        0.0369
      7 O         141.0401  144.4815  160.3336 O.2     1  UNL1       -0.2668
      8 C         140.0295  144.2470  159.2502 C.2     1  UNL1        0.2806
      9 N         138.9382  143.2372  159.4484 N.am    1  UNL1       -0.2999
     10 H         138.2749  143.0833  158.7373 H       1  UNL1        0.1498
     11 C         140.1103  145.0224  157.9686 C.ar    1  UNL1        0.2014
     12 C         140.8457  144.4521  156.7922 C.ar    1  UNL1        0.0843
     13 C         140.9265  145.2273  155.5107 C.ar    1  UNL1        0.2018
     14 O         141.6619  144.6571  154.3342 O.2     1  UNL1       -0.2864
     15 C         140.2719  146.5729  155.4055 C.ar    1  UNL1        0.0737
     16 C         140.3527  147.3482  154.1239 C.ar    1  UNL1        0.0085
     17 C         139.6981  148.6937  154.0188 C.ar    1  UNL1        0.0299
     18 C         138.9627  149.2639  155.1953 C.ar    1  UNL1        0.1432
     19 F         138.3081  150.6095  155.0901 F       1  UNL1       -0.2041
     20 C         138.8819  148.4887  156.4768 C.ar    1  UNL1        0.0672
     21 C         139.5365  147.1432  156.5819 C.ar    1  UNL1        0.1508
     22 O         139.4557  146.3678  157.8635 O.2     1  UNL1       -0.4486
     23 C         138.6149  140.1360  164.5745 C.3     1  UNL1        0.0992
     24 C         139.4900  140.5101  165.7339 C.ar    1  UNL1       -0.0037
     25 C         140.6319  141.4622  165.5351 C.ar    1  UNL1        0.0003
     26 C         141.5070  141.8363  166.6945 C.ar    1  UNL1        0.0390
     27 C         141.2402  141.2584  168.0527 C.ar    1  UNL1        0.1662
     28 C         140.0982  140.3064  168.2515 C.ar    1  UNL1        0.1735
     29 F         139.8314  139.7284  169.6098 F       1  UNL1       -0.2010
     30 C         139.2231  139.9322  167.0921 C.ar    1  UNL1        0.0299
     31 O         142.1153  141.6325  169.2121 O.3     1  UNL1       -0.4643
     32 C         141.8255  142.8755  170.0001 C.3     1  UNL1        0.3082
     33 C         140.4520  143.1075  170.5568 C.3     1  UNL1        0.4380
     34 F         139.0786  143.3395  171.1134 F       1  UNL1       -0.1663
     35 F         140.6162  141.9190  171.4570 F       1  UNL1       -0.1663
     36 F         140.2879  144.2960  169.6565 F       1  UNL1       -0.1663
@<TRIPOS>BOND
     1     7     8    2
     2     8     9   am
     3     9     1    1
     4     1     2    1
     5     2     3    1
     6     3     4    1
     7     4    23    1
     8    23    24    1
     9    24    25   ar
    10    25    26   ar
    11    26    27   ar
    12    27    31    1
    13    31    32    1
    14    32    33    1
    15    33    34    1
    16    33    35    1
    17    33    36    1
    18    27    28   ar
    19    28    29    1
    20    28    30   ar
    21     4     5    1
    22     5     6    1
    23     8    11    1
    24    11    12   ar
    25    12    13   ar
    26    13    14    2
    27    13    15   ar
    28    15    16   ar
    29    16    17   ar
    30    17    18   ar
    31    18    19    1
    32    18    20   ar
    33    20    21   ar
    34    21    22   ar
    35     6     1    1
    36    22    11   ar
    37    30    24   ar
    38    21    15   ar
    39     9    10    1
@<TRIPOS>MOLECULE
*****
 36 39 0 0 0
SMALL
GASTEIGER

@<TRIPOS>ATOM
      1 C         142.5192  138.8809  159.5336 C.3     1  UNL1        0.0747
      2 C         143.7321  138.9539  160.4131 C.3     1  UNL1        0.0369
      3 C         144.0389  140.2154  161.1644 C.3     1  UNL1        0.0741
      4 N         143.1328  141.4040  161.0362 N.3     1  UNL1       -0.2689
      5 C         141.9199  141.3309  160.1567 C.3     1  UNL1        0.0741
      6 C         141.6131  140.0694  159.4054 C.3     1  UNL1        0.0369
      7 O         143.6730  138.4453  156.7989 O.2     1  UNL1       -0.2668
      8 C         142.7893  137.4016  157.4150 C.2     1  UNL1        0.2806
      9 N         142.2123  137.6194  158.7824 N.am    1  UNL1       -0.2999
     10 H         141.6323  136.9343  159.1868 H       1  UNL1        0.1498
     11 C         142.4824  136.1400  156.6637 C.ar    1  UNL1        0.2014
     12 C         141.7239  136.2025  155.3711 C.ar    1  UNL1        0.0843
     13 C         141.4170  134.9410  154.6199 C.ar    1  UNL1        0.2018
     14 O         140.6586  135.0035  153.3273 O.2     1  UNL1       -0.2864
     15 C         141.8686  133.6169  155.1612 C.ar    1  UNL1        0.0737
     16 C         141.5618  132.3554  154.4100 C.ar    1  UNL1        0.0085
     17 C         142.0133  131.0315  154.9513 C.ar    1  UNL1        0.0299
     18 C         142.7718  130.9690  156.2439 C.ar    1  UNL1        0.1432
     19 F         143.2234  129.6449  156.7853 F       1  UNL1       -0.2041
     20 C         143.0787  132.2305  156.9952 C.ar    1  UNL1        0.0672
     21 C         142.6271  133.5544  156.4538 C.ar    1  UNL1        0.1508
     22 O         142.9340  134.8160  157.2051 O.2     1  UNL1       -0.4486
     23 C         143.4396  142.6655  161.7874 C.3     1  UNL1        0.0992
     24 C         143.4721  142.6563  163.2871 C.ar    1  UNL1       -0.0037
     25 C         142.5359  141.7686  164.0521 C.ar    1  UNL1        0.0003
     26 C         142.5684  141.7594  165.5517 C.ar    1  UNL1        0.0390
     27 C         143.5372  142.6379  166.2863 C.ar    1  UNL1        0.1662
     28 C         144.4734  143.5256  165.5212 C.ar    1  UNL1        0.1735
     29 F         145.4423  144.4042  166.2558 F       1  UNL1       -0.2010
     30 C         144.4409  143.5348  164.0216 C.ar    1  UNL1        0.0299
     31 O         143.5697  142.6288  167.7859 O.3     1  UNL1       -0.4643
     32 C         142.4487  141.9968  168.5565 C.3     1  UNL1        0.3082
     33 C         142.6076  140.6127  169.1125 C.3     1  UNL1        0.4380
     34 F         142.7665  139.2287  169.6685 F       1  UNL1       -0.1663
     35 F         143.7382  141.0892  169.9755 F       1  UNL1       -0.1663
     36 F         141.4770  140.1363  168.2496 F       1  UNL1       -0.1663
@<TRIPOS>BOND
     1     7     8    2
     2     8     9   am
     3     9     1    1
     4     1     2    1
     5     2     3    1
     6     3     4    1
     7     4    23    1
     8    23    24    1
     9    24    25   ar
    10    25    26   ar
    11    26    27   ar
    12    27    31    1
    13    31    32    1
    14    32    33    1
    15    33    34    1
    16    33    35    1
    17    33    36    1
    18    27    28   ar
    19    28    29    1
    20    28    30   ar
    21     4     5    1
    22     5     6    1
    23     8    11    1
    24    11    12   ar
    25    12    13   ar
    26    13    14    2
    27    13    15   ar
    28    15    16   ar
    29    16    17   ar
    30    17    18   ar
    31    18    19    1
    32    18    20   ar
    33    20    21   ar
    34    21    22   ar
    35     6     1    1
    36    22    11   ar
    37    30    24   ar
    38    21    15   ar
    39     9    10    1
