@<TRIPOS>MOLECULE
*****
 40 45 0 0 0
SMALL
GASTEIGER

@<TRIPOS>ATOM
      1 C         141.3430  139.0937  160.0418 C.2     1  UNL1        0.2495
      2 O         140.9998  140.3715  160.7485 O.2     1  UNL1       -0.2698
      3 N         142.0071  137.9770  160.7915 N.am    1  UNL1       -0.2804
      4 H         142.2323  137.1384  160.3277 H       1  UNL1        0.1552
      5 C         140.0596  138.4492  154.2162 C.3     1  UNL1        0.0317
      6 C         140.3805  138.6103  155.6726 C.ar    1  UNL1       -0.0142
      7 C         139.9998  139.8718  156.3893 C.ar    1  UNL1       -0.0035
      8 C         140.3206  140.0330  157.8457 C.ar    1  UNL1        0.0042
      9 C         141.0222  138.9326  158.5854 C.ar    1  UNL1        0.0543
     10 C         141.4028  137.6711  157.8687 C.ar    1  UNL1        0.0124
     11 C         141.0820  137.5099  156.4122 C.ar    1  UNL1        0.0382
     12 C         141.4627  136.2484  155.6955 C.1     1  UNL1       -0.0585
     13 C         141.8433  134.9869  154.9788 C.1     1  UNL1       -0.0388
     14 C         142.2240  133.7254  154.2620 C.ar    1  UNL1        0.1451
     15 C         141.7418  133.3019  152.9062 C.ar    1  UNL1        0.1281
     16 N         142.3734  131.9807  152.5814 N.ar    1  UNL1       -0.2228
     17 C         143.2459  131.5877  153.7365 C.ar    1  UNL1        0.1646
     18 C         144.1127  130.3873  153.9767 C.ar    1  UNL1        0.0405
     19 C         144.8871  130.2652  155.2557 C.ar    1  UNL1        0.0256
     20 C         144.7947  131.3435  156.2943 C.ar    1  UNL1        0.1207
     21 N         143.9279  132.5439  156.0540 N.ar    1  UNL1       -0.1616
     22 N         143.1536  132.6661  154.7752 N.ar    1  UNL1       -0.2030
     23 C         142.3279  138.1382  162.2479 C.ar    1  UNL1        0.0514
     24 C         141.4050  137.5726  163.2862 C.ar    1  UNL1        0.0145
     25 C         141.7259  137.7337  164.7427 C.ar    1  UNL1       -0.0008
     26 C         142.9697  138.4604  165.1607 C.ar    1  UNL1        0.0045
     27 C         143.8926  139.0261  164.1223 C.ar    1  UNL1        0.0562
     28 CL        145.1364  139.7528  164.5403 Cl      1  UNL1       -0.0825
     29 C         143.5718  138.8650  162.6659 C.ar    1  UNL1        0.0258
     30 C         143.2906  138.6216  166.6171 C.3     1  UNL1        0.1000
     31 N         142.4868  139.5649  167.4622 N.3     1  UNL1       -0.2675
     32 C         141.7276  140.6871  166.8187 C.3     1  UNL1        0.0729
     33 C         140.9239  141.6305  167.6639 C.3     1  UNL1        0.0251
     34 C         140.8794  141.4515  169.1525 C.3     1  UNL1        0.0652
     35 C         140.1791  142.2181  170.2350 C.2     1  UNL1        0.0921
     36 N         140.5055  141.5695  171.5476 N.2     1  UNL1       -0.1886
     37 N         141.4076  140.4022  171.2762 N.pl3   1  UNL1       -0.2575
     38 C         141.6387  140.3293  169.7959 C.3     1  UNL1        0.1088
     39 C         142.4424  139.3860  168.9508 C.3     1  UNL1        0.0940
     40 H         141.7821  139.7911  171.9512 H       1  UNL1        0.1687
@<TRIPOS>BOND
     1     5     6    1
     2     6     7   ar
     3     7     8   ar
     4     8     9   ar
     5     9     1    1
     6     1     2    2
     7     1     3   am
     8     3    23    1
     9    23    24   ar
    10    24    25   ar
    11    25    26   ar
    12    26    30    1
    13    30    31    1
    14    31    32    1
    15    32    33    1
    16    33    34    1
    17    34    35    1
    18    35    36    2
    19    36    37    1
    20    37    38    1
    21    38    39    1
    22    26    27   ar
    23    27    28    1
    24    27    29   ar
    25     9    10   ar
    26    10    11   ar
    27    11    12    1
    28    12    13    3
    29    13    14    1
    30    14    15   ar
    31    15    16   ar
    32    16    17   ar
    33    17    18   ar
    34    18    19   ar
    35    19    20   ar
    36    20    21   ar
    37    21    22   ar
    38    11     6   ar
    39    22    14   ar
    40    29    23   ar
    41    22    17   ar
    42    39    31    1
    43    38    34    1
    44     3     4    1
    45    37    40    1
@<TRIPOS>MOLECULE
*****
 40 45 0 0 0
SMALL
GASTEIGER

@<TRIPOS>ATOM
      1 C         141.6971  138.9644  160.4598 C.2     1  UNL1        0.2495
      2 O         142.4826  139.8893  161.3417 O.2     1  UNL1       -0.2698
      3 N         140.4626  138.2944  160.9862 N.am    1  UNL1       -0.2804
      4 H         139.9471  137.6874  160.4074 H       1  UNL1        0.1552
      5 C         143.4937  137.9444  154.8267 C.3     1  UNL1        0.0317
      6 C         143.0445  138.1994  156.2349 C.ar    1  UNL1       -0.0142
      7 C         142.6924  139.5912  156.6695 C.ar    1  UNL1       -0.0035
      8 C         142.2433  139.8462  158.0777 C.ar    1  UNL1        0.0042
      9 C         142.1463  138.7094  159.0515 C.ar    1  UNL1        0.0543
     10 C         142.4984  137.3176  158.6170 C.ar    1  UNL1        0.0124
     11 C         142.9475  137.0625  157.2087 C.ar    1  UNL1        0.0382
     12 C         143.2996  135.6707  156.7741 C.1     1  UNL1       -0.0585
     13 C         143.6517  134.2789  156.3396 C.1     1  UNL1       -0.0388
     14 C         144.0038  132.8871  155.9050 C.ar    1  UNL1        0.1451
     15 C         144.9171  131.9420  156.6283 C.ar    1  UNL1        0.1281
     16 N         144.9822  130.6668  155.8412 N.ar    1  UNL1       -0.2228
     17 C         144.1092  130.8237  154.6316 C.ar    1  UNL1        0.1646
     18 C         143.7868  129.8943  153.4992 C.ar    1  UNL1        0.0405
     19 C         142.8597  130.3371  152.4062 C.ar    1  UNL1        0.0256
     20 C         142.2550  131.7093  152.4457 C.ar    1  UNL1        0.1207
     21 N         142.5775  132.6387  153.5781 N.ar    1  UNL1       -0.1616
     22 N         143.5046  132.1959  154.6710 N.ar    1  UNL1       -0.2030
     23 C         140.0135  138.5494  162.3945 C.ar    1  UNL1        0.0514
     24 C         140.4466  137.6303  163.4979 C.ar    1  UNL1        0.0145
     25 C         139.9974  137.8852  164.9062 C.ar    1  UNL1       -0.0008
     26 C         139.1152  139.0594  165.2111 C.ar    1  UNL1        0.0045
     27 C         138.6820  139.9786  164.1076 C.ar    1  UNL1        0.0562
     28 CL        137.7998  141.1527  164.4125 Cl      1  UNL1       -0.0825
     29 C         139.1312  139.7236  162.6993 C.ar    1  UNL1        0.0258
     30 C         138.6660  139.3143  166.6194 C.3     1  UNL1        0.1000
     31 N         139.4943  140.1753  167.5265 N.3     1  UNL1       -0.2675
     32 C         140.3233  141.2869  166.9547 C.3     1  UNL1        0.0729
     33 C         141.1516  142.1479  167.8618 C.3     1  UNL1        0.0251
     34 C         141.1508  141.8972  169.3406 C.3     1  UNL1        0.0652
     35 C         141.8614  142.5758  170.4740 C.2     1  UNL1        0.0921
     36 N         141.4715  141.8835  171.7463 N.2     1  UNL1       -0.1886
     37 N         140.5200  140.7770  171.3993 N.pl3   1  UNL1       -0.2575
     38 C         140.3218  140.7855  169.9124 C.3     1  UNL1        0.1088
     39 C         139.4936  139.9246  169.0053 C.3     1  UNL1        0.0940
     40 H         140.0995  140.1546  172.0356 H       1  UNL1        0.1687
@<TRIPOS>BOND
     1     5     6    1
     2     6     7   ar
     3     7     8   ar
     4     8     9   ar
     5     9     1    1
     6     1     2    2
     7     1     3   am
     8     3    23    1
     9    23    24   ar
    10    24    25   ar
    11    25    26   ar
    12    26    30    1
    13    30    31    1
    14    31    32    1
    15    32    33    1
    16    33    34    1
    17    34    35    1
    18    35    36    2
    19    36    37    1
    20    37    38    1
    21    38    39    1
    22    26    27   ar
    23    27    28    1
    24    27    29   ar
    25     9    10   ar
    26    10    11   ar
    27    11    12    1
    28    12    13    3
    29    13    14    1
    30    14    15   ar
    31    15    16   ar
    32    16    17   ar
    33    17    18   ar
    34    18    19   ar
    35    19    20   ar
    36    20    21   ar
    37    21    22   ar
    38    11     6   ar
    39    22    14   ar
    40    29    23   ar
    41    22    17   ar
    42    39    31    1
    43    38    34    1
    44     3     4    1
    45    37    40    1
@<TRIPOS>MOLECULE
*****
 40 45 0 0 0
SMALL
GASTEIGER

@<TRIPOS>ATOM
      1 C         142.2967  138.1195  159.7923 C.2     1  UNL1        0.2495
      2 O         143.7501  138.0414  160.1549 O.2     1  UNL1       -0.2698
      3 N         141.2660  138.3184  160.8637 N.am    1  UNL1       -0.2804
      4 H         140.3121  138.3697  160.6257 H       1  UNL1        0.1552
      5 C         140.6061  137.6362  154.0557 C.3     1  UNL1        0.0317
      6 C         141.0287  137.7570  155.4898 C.ar    1  UNL1       -0.0142
      7 C         142.2880  137.0908  155.9593 C.ar    1  UNL1       -0.0035
      8 C         142.7107  137.2116  157.3934 C.ar    1  UNL1        0.0042
      9 C         141.8741  137.9987  158.3581 C.ar    1  UNL1        0.0543
     10 C         140.6148  138.6649  157.8887 C.ar    1  UNL1        0.0124
     11 C         140.1921  138.5441  156.4545 C.ar    1  UNL1        0.0382
     12 C         138.9328  139.2103  155.9850 C.1     1  UNL1       -0.0585
     13 C         137.6736  139.8765  155.5156 C.1     1  UNL1       -0.0388
     14 C         136.4143  140.5427  155.0462 C.ar    1  UNL1        0.1451
     15 C         136.2900  141.4627  153.8678 C.ar    1  UNL1        0.1281
     16 N         134.8572  141.8945  153.7660 N.ar    1  UNL1       -0.2228
     17 C         134.0959  141.2415  154.8813 C.ar    1  UNL1        0.1646
     18 C         132.6506  141.2996  155.2787 C.ar    1  UNL1        0.0405
     19 C         132.1678  140.5223  156.4674 C.ar    1  UNL1        0.0256
     20 C         133.1302  139.6869  157.2585 C.ar    1  UNL1        0.1207
     21 N         134.5754  139.6288  156.8611 N.ar    1  UNL1       -0.1616
     22 N         135.0583  140.4060  155.6725 N.ar    1  UNL1       -0.2030
     23 C         141.6886  138.4393  162.2978 C.ar    1  UNL1        0.0514
     24 C         141.1803  137.4607  163.3145 C.ar    1  UNL1        0.0145
     25 C         141.6030  137.5815  164.7487 C.ar    1  UNL1       -0.0008
     26 C         142.5340  138.6811  165.1661 C.ar    1  UNL1        0.0045
     27 C         143.0423  139.6598  164.1493 C.ar    1  UNL1        0.0562
     28 CL        143.9733  140.7593  164.5667 Cl      1  UNL1       -0.0825
     29 C         142.6197  139.5389  162.7152 C.ar    1  UNL1        0.0258
     30 C         142.9566  138.8019  166.6003 C.3     1  UNL1        0.1000
     31 N         142.1869  139.6852  167.5371 N.3     1  UNL1       -0.2675
     32 C         141.0596  140.5274  167.0178 C.3     1  UNL1        0.0729
     33 C         140.2899  141.4106  167.9545 C.3     1  UNL1        0.0251
     34 C         140.6477  141.4516  169.4107 C.3     1  UNL1        0.0652
     35 C         140.0731  142.2193  170.5641 C.2     1  UNL1        0.0921
     36 N         140.8453  141.8515  171.7963 N.2     1  UNL1       -0.1886
     37 N         141.8972  140.8565  171.4044 N.pl3   1  UNL1       -0.2575
     38 C         141.7750  140.6093  169.9300 C.3     1  UNL1        0.1088
     39 C         142.5446  139.7261  168.9932 C.3     1  UNL1        0.0940
     40 H         142.5526  140.4390  172.0088 H       1  UNL1        0.1687
@<TRIPOS>BOND
     1     5     6    1
     2     6     7   ar
     3     7     8   ar
     4     8     9   ar
     5     9     1    1
     6     1     2    2
     7     1     3   am
     8     3    23    1
     9    23    24   ar
    10    24    25   ar
    11    25    26   ar
    12    26    30    1
    13    30    31    1
    14    31    32    1
    15    32    33    1
    16    33    34    1
    17    34    35    1
    18    35    36    2
    19    36    37    1
    20    37    38    1
    21    38    39    1
    22    26    27   ar
    23    27    28    1
    24    27    29   ar
    25     9    10   ar
    26    10    11   ar
    27    11    12    1
    28    12    13    3
    29    13    14    1
    30    14    15   ar
    31    15    16   ar
    32    16    17   ar
    33    17    18   ar
    34    18    19   ar
    35    19    20   ar
    36    20    21   ar
    37    21    22   ar
    38    11     6   ar
    39    22    14   ar
    40    29    23   ar
    41    22    17   ar
    42    39    31    1
    43    38    34    1
    44     3     4    1
    45    37    40    1
@<TRIPOS>MOLECULE
*****
 40 45 0 0 0
SMALL
GASTEIGER

@<TRIPOS>ATOM
      1 C         141.8673  138.8646  160.4442 C.2     1  UNL1        0.2495
      2 O         142.6752  139.6858  161.4048 O.2     1  UNL1       -0.2698
      3 N         140.5662  138.2609  160.8833 N.am    1  UNL1       -0.2804
      4 H         140.0359  137.7219  160.2528 H       1  UNL1        0.1552
      5 C         143.8397  137.9945  154.8448 C.3     1  UNL1        0.0317
      6 C         143.3466  138.2119  156.2446 C.ar    1  UNL1       -0.0142
      7 C         143.2328  139.6039  156.7919 C.ar    1  UNL1       -0.0035
      8 C         142.7397  139.8215  158.1917 C.ar    1  UNL1        0.0042
      9 C         142.3604  138.6471  159.0443 C.ar    1  UNL1        0.0543
     10 C         142.4741  137.2551  158.4971 C.ar    1  UNL1        0.0124
     11 C         142.9672  137.0375  157.0972 C.ar    1  UNL1        0.0382
     12 C         143.0810  135.6456  156.5499 C.1     1  UNL1       -0.0585
     13 C         143.1948  134.2536  156.0026 C.1     1  UNL1       -0.0388
     14 C         143.3085  132.8617  155.4553 C.ar    1  UNL1        0.1451
     15 C         142.9735  132.4339  154.0571 C.ar    1  UNL1        0.1281
     16 N         143.2352  130.9610  153.9477 N.ar    1  UNL1       -0.2228
     17 C         143.7319  130.4785  155.2783 C.ar    1  UNL1        0.1646
     18 C         144.1489  129.1211  155.7618 C.ar    1  UNL1        0.0405
     19 C         144.6112  128.9385  157.1772 C.ar    1  UNL1        0.0256
     20 C         144.6565  130.1132  158.1089 C.ar    1  UNL1        0.1207
     21 N         144.2395  131.4705  157.6253 N.ar    1  UNL1       -0.1616
     22 N         143.7773  131.6532  156.2100 N.ar    1  UNL1       -0.2030
     23 C         140.0731  138.4784  162.2832 C.ar    1  UNL1        0.0514
     24 C         140.5432  137.5837  163.3914 C.ar    1  UNL1        0.0145
     25 C         140.0501  137.8012  164.7913 C.ar    1  UNL1       -0.0008
     26 C         139.0868  138.9135  165.0828 C.ar    1  UNL1        0.0045
     27 C         138.6167  139.8082  163.9744 C.ar    1  UNL1        0.0562
     28 CL        137.6534  140.9205  164.2659 Cl      1  UNL1       -0.0825
     29 C         139.1098  139.5907  162.5746 C.ar    1  UNL1        0.0258
     30 C         138.5937  139.1310  166.4827 C.3     1  UNL1        0.1000
     31 N         139.3165  140.0785  167.3937 N.3     1  UNL1       -0.2675
     32 C         140.1360  141.1948  166.8174 C.3     1  UNL1        0.0729
     33 C         140.8588  142.1423  167.7284 C.3     1  UNL1        0.0251
     34 C         140.7620  141.9734  169.2157 C.3     1  UNL1        0.0652
     35 C         141.3590  142.7459  170.3545 C.2     1  UNL1        0.0921
     36 N         140.9084  142.1070  171.6346 N.2     1  UNL1       -0.1886
     37 N         140.0329  140.9396  171.2870 N.pl3   1  UNL1       -0.2575
     38 C         139.9425  140.8571  169.7920 C.3     1  UNL1        0.1088
     39 C         139.2197  139.9096  168.8810 C.3     1  UNL1        0.0940
     40 H         139.5946  140.3340  171.9276 H       1  UNL1        0.1687
@<TRIPOS>BOND
     1     5     6    1
     2     6     7   ar
     3     7     8   ar
     4     8     9   ar
     5     9     1    1
     6     1     2    2
     7     1     3   am
     8     3    23    1
     9    23    24   ar
    10    24    25   ar
    11    25    26   ar
    12    26    30    1
    13    30    31    1
    14    31    32    1
    15    32    33    1
    16    33    34    1
    17    34    35    1
    18    35    36    2
    19    36    37    1
    20    37    38    1
    21    38    39    1
    22    26    27   ar
    23    27    28    1
    24    27    29   ar
    25     9    10   ar
    26    10    11   ar
    27    11    12    1
    28    12    13    3
    29    13    14    1
    30    14    15   ar
    31    15    16   ar
    32    16    17   ar
    33    17    18   ar
    34    18    19   ar
    35    19    20   ar
    36    20    21   ar
    37    21    22   ar
    38    11     6   ar
    39    22    14   ar
    40    29    23   ar
    41    22    17   ar
    42    39    31    1
    43    38    34    1
    44     3     4    1
    45    37    40    1
@<TRIPOS>MOLECULE
*****
 40 45 0 0 0
SMALL
GASTEIGER

@<TRIPOS>ATOM
      1 C         138.9793  139.6401  159.7865 C.2     1  UNL1        0.2495
      2 O         137.6867  140.2282  160.2697 O.2     1  UNL1       -0.2698
      3 N         140.0725  139.3263  160.7644 N.am    1  UNL1       -0.2804
      4 H         140.9208  138.9404  160.4473 H       1  UNL1        0.1552
      5 C         139.7766  138.5430  153.9418 C.3     1  UNL1        0.0317
      6 C         139.5773  138.8173  155.4029 C.ar    1  UNL1       -0.0142
      7 C         138.8731  140.0667  155.8423 C.ar    1  UNL1       -0.0035
      8 C         138.6737  140.3410  157.3034 C.ar    1  UNL1        0.0042
      9 C         139.1786  139.3659  158.3253 C.ar    1  UNL1        0.0543
     10 C         139.8828  138.1164  157.8860 C.ar    1  UNL1        0.0124
     11 C         140.0822  137.8421  156.4248 C.ar    1  UNL1        0.0382
     12 C         140.7863  136.5927  155.9854 C.1     1  UNL1       -0.0585
     13 C         141.4905  135.3432  155.5461 C.1     1  UNL1       -0.0388
     14 C         142.1947  134.0938  155.1068 C.ar    1  UNL1        0.1451
     15 C         142.0174  133.3986  153.7894 C.ar    1  UNL1        0.1281
     16 N         142.9129  132.1953  153.7761 N.ar    1  UNL1       -0.2228
     17 C         143.6437  132.1469  155.0851 C.ar    1  UNL1        0.1646
     18 C         144.6561  131.1860  155.6345 C.ar    1  UNL1        0.0405
     19 C         145.2245  131.3984  157.0063 C.ar    1  UNL1        0.0256
     20 C         144.7806  132.5718  157.8287 C.ar    1  UNL1        0.1207
     21 N         143.7683  133.5327  157.2793 N.ar    1  UNL1       -0.1616
     22 N         143.1998  133.3203  155.9075 N.ar    1  UNL1       -0.2030
     23 C         139.8732  139.6006  162.2256 C.ar    1  UNL1        0.0514
     24 C         140.2159  140.9476  162.7895 C.ar    1  UNL1        0.0145
     25 C         140.0166  141.2218  164.2507 C.ar    1  UNL1       -0.0008
     26 C         139.4745  140.1490  165.1480 C.ar    1  UNL1        0.0045
     27 C         139.1318  138.8019  164.5841 C.ar    1  UNL1        0.0562
     28 CL        138.5897  137.7291  165.4814 Cl      1  UNL1       -0.0825
     29 C         139.3311  138.5277  163.1229 C.ar    1  UNL1        0.0258
     30 C         139.2752  140.4232  166.6092 C.3     1  UNL1        0.1000
     31 N         140.4323  140.8691  167.4532 N.3     1  UNL1       -0.2675
     32 C         141.7346  140.1274  167.3926 C.3     1  UNL1        0.0729
     33 C         142.8918  140.5733  168.2366 C.3     1  UNL1        0.0251
     34 C         142.7465  141.7609  169.1413 C.3     1  UNL1        0.0652
     35 C         143.7045  142.4286  170.0827 C.2     1  UNL1        0.0921
     36 N         142.9942  143.5830  170.7252 N.2     1  UNL1       -0.1886
     37 N         141.5972  143.6287  170.1809 N.pl3   1  UNL1       -0.2575
     38 C         141.4441  142.5026  169.2019 C.3     1  UNL1        0.1088
     39 C         140.2870  142.0567  168.3579 C.3     1  UNL1        0.0940
     40 H         140.9027  144.2830  170.4236 H       1  UNL1        0.1687
@<TRIPOS>BOND
     1     5     6    1
     2     6     7   ar
     3     7     8   ar
     4     8     9   ar
     5     9     1    1
     6     1     2    2
     7     1     3   am
     8     3    23    1
     9    23    24   ar
    10    24    25   ar
    11    25    26   ar
    12    26    30    1
    13    30    31    1
    14    31    32    1
    15    32    33    1
    16    33    34    1
    17    34    35    1
    18    35    36    2
    19    36    37    1
    20    37    38    1
    21    38    39    1
    22    26    27   ar
    23    27    28    1
    24    27    29   ar
    25     9    10   ar
    26    10    11   ar
    27    11    12    1
    28    12    13    3
    29    13    14    1
    30    14    15   ar
    31    15    16   ar
    32    16    17   ar
    33    17    18   ar
    34    18    19   ar
    35    19    20   ar
    36    20    21   ar
    37    21    22   ar
    38    11     6   ar
    39    22    14   ar
    40    29    23   ar
    41    22    17   ar
    42    39    31    1
    43    38    34    1
    44     3     4    1
    45    37    40    1
@<TRIPOS>MOLECULE
*****
 40 45 0 0 0
SMALL
GASTEIGER

@<TRIPOS>ATOM
      1 C         139.3779  140.4133  160.0591 C.2     1  UNL1        0.2495
      2 O         139.6703  139.4204  161.1447 O.2     1  UNL1       -0.2698
      3 N         139.2400  141.8694  160.3917 N.am    1  UNL1       -0.2804
      4 H         139.0481  142.5211  159.6791 H       1  UNL1        0.1552
      5 C         138.7602  138.5602  154.3859 C.3     1  UNL1        0.0317
      6 C         138.9147  139.0234  155.8042 C.ar    1  UNL1       -0.0142
      7 C         138.1891  140.2484  156.2763 C.ar    1  UNL1       -0.0035
      8 C         138.3434  140.7118  157.6945 C.ar    1  UNL1        0.0042
      9 C         139.2235  139.9501  158.6408 C.ar    1  UNL1        0.0543
     10 C         139.9491  138.7251  158.1687 C.ar    1  UNL1        0.0124
     11 C         139.7947  138.2617  156.7504 C.ar    1  UNL1        0.0382
     12 C         140.5203  137.0367  156.2783 C.1     1  UNL1       -0.0585
     13 C         141.2459  135.8117  155.8062 C.1     1  UNL1       -0.0388
     14 C         141.9715  134.5867  155.3342 C.ar    1  UNL1        0.1451
     15 C         141.7901  133.9109  154.0073 C.ar    1  UNL1        0.1281
     16 N         142.7123  132.7290  153.9591 N.ar    1  UNL1       -0.2228
     17 C         143.4638  132.6743  155.2561 C.ar    1  UNL1        0.1646
     18 C         144.5058  131.7272  155.7732 C.ar    1  UNL1        0.0405
     19 C         145.0900  131.9284  157.1401 C.ar    1  UNL1        0.0256
     20 C         144.6321  133.0765  157.9899 C.ar    1  UNL1        0.1207
     21 N         143.5901  134.0235  157.4728 N.ar    1  UNL1       -0.1616
     22 N         143.0059  133.8224  156.1060 N.ar    1  UNL1       -0.2030
     23 C         139.3944  142.3327  161.8100 C.ar    1  UNL1        0.0514
     24 C         138.1854  142.4886  162.6839 C.ar    1  UNL1        0.0145
     25 C         138.3399  142.9519  164.1023 C.ar    1  UNL1       -0.0008
     26 C         139.7034  143.2592  164.6466 C.ar    1  UNL1        0.0045
     27 C         140.9125  143.1033  163.7726 C.ar    1  UNL1        0.0562
     28 CL        142.2760  143.4106  164.3169 Cl      1  UNL1       -0.0825
     29 C         140.7581  142.6400  162.3543 C.ar    1  UNL1        0.0258
     30 C         139.8579  143.7225  166.0649 C.3     1  UNL1        0.1000
     31 N         139.9982  142.7186  167.1706 N.3     1  UNL1       -0.2675
     32 C         139.9499  141.2515  166.8623 C.3     1  UNL1        0.0729
     33 C         140.0903  140.2476  167.9681 C.3     1  UNL1        0.0251
     34 C         140.2790  140.7110  169.3822 C.3     1  UNL1        0.0652
     35 C         140.4447  139.9609  170.6705 C.2     1  UNL1        0.0921
     36 N         140.5955  140.9645  171.7751 N.2     1  UNL1       -0.1886
     37 N         140.5229  142.3349  171.1694 N.pl3   1  UNL1       -0.2575
     38 C         140.3273  142.1782  169.6905 C.3     1  UNL1        0.1088
     39 C         140.1869  143.1820  168.5847 C.3     1  UNL1        0.0940
     40 H         140.5915  143.1874  171.6570 H       1  UNL1        0.1687
@<TRIPOS>BOND
     1     5     6    1
     2     6     7   ar
     3     7     8   ar
     4     8     9   ar
     5     9     1    1
     6     1     2    2
     7     1     3   am
     8     3    23    1
     9    23    24   ar
    10    24    25   ar
    11    25    26   ar
    12    26    30    1
    13    30    31    1
    14    31    32    1
    15    32    33    1
    16    33    34    1
    17    34    35    1
    18    35    36    2
    19    36    37    1
    20    37    38    1
    21    38    39    1
    22    26    27   ar
    23    27    28    1
    24    27    29   ar
    25     9    10   ar
    26    10    11   ar
    27    11    12    1
    28    12    13    3
    29    13    14    1
    30    14    15   ar
    31    15    16   ar
    32    16    17   ar
    33    17    18   ar
    34    18    19   ar
    35    19    20   ar
    36    20    21   ar
    37    21    22   ar
    38    11     6   ar
    39    22    14   ar
    40    29    23   ar
    41    22    17   ar
    42    39    31    1
    43    38    34    1
    44     3     4    1
    45    37    40    1
@<TRIPOS>MOLECULE
*****
 40 45 0 0 0
SMALL
GASTEIGER

@<TRIPOS>ATOM
      1 C         142.1790  140.0563  160.1471 C.2     1  UNL1        0.2495
      2 O         141.1019  140.9833  160.6272 O.2     1  UNL1       -0.2698
      3 N         143.3983  139.8234  160.9891 N.am    1  UNL1       -0.2804
      4 H         144.1053  139.2150  160.6740 H       1  UNL1        0.1552
      5 C         141.6100  137.2797  154.8588 C.3     1  UNL1        0.0317
      6 C         141.7523  137.9738  156.1808 C.ar    1  UNL1       -0.0142
      7 C         141.2006  139.3564  156.3652 C.ar    1  UNL1       -0.0035
      8 C         141.3428  140.0506  157.6872 C.ar    1  UNL1        0.0042
      9 C         142.0367  139.3622  158.8250 C.ar    1  UNL1        0.0543
     10 C         142.5884  137.9795  158.6407 C.ar    1  UNL1        0.0124
     11 C         142.4462  137.2853  157.3186 C.ar    1  UNL1        0.0382
     12 C         142.9979  135.9027  157.1343 C.1     1  UNL1       -0.0585
     13 C         143.5495  134.5200  156.9499 C.1     1  UNL1       -0.0388
     14 C         144.1012  133.1374  156.7656 C.ar    1  UNL1        0.1451
     15 C         144.9281  132.3781  157.7606 C.ar    1  UNL1        0.1281
     16 N         145.2608  131.0428  157.1639 N.ar    1  UNL1       -0.2228
     17 C         144.6396  130.9767  155.8002 C.ar    1  UNL1        0.1646
     18 C         144.6339  129.9050  154.7507 C.ar    1  UNL1        0.0405
     19 C         143.9115  130.1279  153.4550 C.ar    1  UNL1        0.0256
     20 C         143.1949  131.4225  153.2089 C.ar    1  UNL1        0.1207
     21 N         143.2006  132.4942  154.2584 N.ar    1  UNL1       -0.1616
     22 N         143.9229  132.2713  155.5540 N.ar    1  UNL1       -0.2030
     23 C         143.5406  140.5175  162.3112 C.ar    1  UNL1        0.0514
     24 C         143.4973  139.7241  163.5833 C.ar    1  UNL1        0.0145
     25 C         143.6396  140.4183  164.9055 C.ar    1  UNL1       -0.0008
     26 C         143.8251  141.9059  164.9554 C.ar    1  UNL1        0.0045
     27 C         143.8684  142.6994  163.6831 C.ar    1  UNL1        0.0562
     28 CL        144.0539  144.1870  163.7330 Cl      1  UNL1       -0.0825
     29 C         143.7261  142.0053  162.3610 C.ar    1  UNL1        0.0258
     30 C         143.9674  142.6001  166.2775 C.3     1  UNL1        0.1000
     31 N         142.8717  142.5027  167.2974 N.3     1  UNL1       -0.2675
     32 C         141.4380  142.4724  166.8574 C.3     1  UNL1        0.0729
     33 C         140.3423  142.3750  167.8773 C.3     1  UNL1        0.0251
     34 C         140.6805  142.3080  169.3371 C.3     1  UNL1        0.0652
     35 C         139.8214  142.2083  170.5627 C.2     1  UNL1        0.0921
     36 N         140.7243  142.1771  171.7602 N.2     1  UNL1       -0.1886
     37 N         142.1412  142.2574  171.2747 N.pl3   1  UNL1       -0.2575
     38 C         142.1142  142.3383  169.7771 C.3     1  UNL1        0.1088
     39 C         143.2098  142.4357  168.7572 C.3     1  UNL1        0.0940
     40 H         142.9475  142.2571  171.8397 H       1  UNL1        0.1687
@<TRIPOS>BOND
     1     5     6    1
     2     6     7   ar
     3     7     8   ar
     4     8     9   ar
     5     9     1    1
     6     1     2    2
     7     1     3   am
     8     3    23    1
     9    23    24   ar
    10    24    25   ar
    11    25    26   ar
    12    26    30    1
    13    30    31    1
    14    31    32    1
    15    32    33    1
    16    33    34    1
    17    34    35    1
    18    35    36    2
    19    36    37    1
    20    37    38    1
    21    38    39    1
    22    26    27   ar
    23    27    28    1
    24    27    29   ar
    25     9    10   ar
    26    10    11   ar
    27    11    12    1
    28    12    13    3
    29    13    14    1
    30    14    15   ar
    31    15    16   ar
    32    16    17   ar
    33    17    18   ar
    34    18    19   ar
    35    19    20   ar
    36    20    21   ar
    37    21    22   ar
    38    11     6   ar
    39    22    14   ar
    40    29    23   ar
    41    22    17   ar
    42    39    31    1
    43    38    34    1
    44     3     4    1
    45    37    40    1
@<TRIPOS>MOLECULE
*****
 40 45 0 0 0
SMALL
GASTEIGER

@<TRIPOS>ATOM
      1 C         139.9467  140.1755  160.5457 C.2     1  UNL1        0.2495
      2 O         140.3538  138.8218  161.0474 O.2     1  UNL1       -0.2698
      3 N         140.0865  140.5090  159.0899 N.am    1  UNL1       -0.2804
      4 H         139.8193  141.3975  158.7606 H       1  UNL1        0.1552
      5 C         137.7590  144.2560  164.3619 C.3     1  UNL1        0.0317
      6 C         138.3059  143.2359  163.4079 C.ar    1  UNL1       -0.0142
      7 C         137.8446  143.2205  161.9807 C.ar    1  UNL1       -0.0035
      8 C         138.3915  142.2004  161.0266 C.ar    1  UNL1        0.0042
      9 C         139.3997  141.1956  161.4997 C.ar    1  UNL1        0.0543
     10 C         139.8611  141.2110  162.9269 C.ar    1  UNL1        0.0124
     11 C         139.3142  142.2311  163.8811 C.ar    1  UNL1        0.0382
     12 C         139.7755  142.2465  165.3083 C.1     1  UNL1       -0.0585
     13 C         140.2369  142.2619  166.7355 C.1     1  UNL1       -0.0388
     14 C         140.6982  142.2773  168.1627 C.ar    1  UNL1        0.1451
     15 C         140.4805  143.3874  169.1477 C.ar    1  UNL1        0.1281
     16 N         141.1059  142.9815  170.4493 N.ar    1  UNL1       -0.2228
     17 C         141.7102  141.6206  170.2686 C.ar    1  UNL1        0.1646
     18 C         142.4574  140.7214  171.2084 C.ar    1  UNL1        0.0405
     19 C         142.9526  139.3869  170.7349 C.ar    1  UNL1        0.0256
     20 C         142.7006  138.9517  169.3217 C.ar    1  UNL1        0.1207
     21 N         141.9534  139.8509  168.3819 N.ar    1  UNL1       -0.1616
     22 N         141.4582  141.1854  168.8554 N.ar    1  UNL1       -0.2030
     23 C         140.6334  139.4889  158.1359 C.ar    1  UNL1        0.0514
     24 C         142.1163  139.3130  157.9950 C.ar    1  UNL1        0.0145
     25 C         142.6632  138.2928  157.0409 C.ar    1  UNL1       -0.0008
     26 C         141.7272  137.4485  156.2278 C.ar    1  UNL1        0.0045
     27 C         140.2442  137.6245  156.3688 C.ar    1  UNL1        0.0562
     28 CL        139.3082  136.7803  155.5557 Cl      1  UNL1       -0.0825
     29 C         139.6973  138.6447  157.3228 C.ar    1  UNL1        0.0258
     30 C         142.2741  136.4284  155.2738 C.3     1  UNL1        0.1000
     31 N         142.5520  135.0323  155.7468 N.3     1  UNL1       -0.2675
     32 C         141.6250  133.9146  155.3711 C.3     1  UNL1        0.0729
     33 C         141.9028  132.5185  155.8441 C.3     1  UNL1        0.0251
     34 C         143.1078  132.2402  156.6930 C.3     1  UNL1        0.0652
     35 C         143.6356  130.9754  157.3027 C.2     1  UNL1        0.0921
     36 N         144.8888  131.3114  158.0552 N.2     1  UNL1       -0.1886
     37 N         145.1356  132.7839  157.9107 N.pl3   1  UNL1       -0.2575
     38 C         144.0349  133.3579  157.0687 C.3     1  UNL1        0.1088
     39 C         143.7570  134.7540  156.5957 C.3     1  UNL1        0.0940
     40 H         145.8880  133.2855  158.3000 H       1  UNL1        0.1687
@<TRIPOS>BOND
     1     5     6    1
     2     6     7   ar
     3     7     8   ar
     4     8     9   ar
     5     9     1    1
     6     1     2    2
     7     1     3   am
     8     3    23    1
     9    23    24   ar
    10    24    25   ar
    11    25    26   ar
    12    26    30    1
    13    30    31    1
    14    31    32    1
    15    32    33    1
    16    33    34    1
    17    34    35    1
    18    35    36    2
    19    36    37    1
    20    37    38    1
    21    38    39    1
    22    26    27   ar
    23    27    28    1
    24    27    29   ar
    25     9    10   ar
    26    10    11   ar
    27    11    12    1
    28    12    13    3
    29    13    14    1
    30    14    15   ar
    31    15    16   ar
    32    16    17   ar
    33    17    18   ar
    34    18    19   ar
    35    19    20   ar
    36    20    21   ar
    37    21    22   ar
    38    11     6   ar
    39    22    14   ar
    40    29    23   ar
    41    22    17   ar
    42    39    31    1
    43    38    34    1
    44     3     4    1
    45    37    40    1
@<TRIPOS>MOLECULE
*****
 40 45 0 0 0
SMALL
GASTEIGER

@<TRIPOS>ATOM
      1 C         142.1016  140.1033  160.3279 C.2     1  UNL1        0.2495
      2 O         141.9158  139.1212  161.4463 O.2     1  UNL1       -0.2698
      3 N         141.8443  141.5626  160.5608 N.am    1  UNL1       -0.2804
      4 H         141.9662  142.2073  159.8268 H       1  UNL1        0.1552
      5 C         143.8739  138.1946  154.9227 C.3     1  UNL1        0.0317
      6 C         143.4308  138.6718  156.2740 C.ar    1  UNL1       -0.0142
      7 C         143.5978  140.1137  156.6521 C.ar    1  UNL1       -0.0035
      8 C         143.1548  140.5909  158.0034 C.ar    1  UNL1        0.0042
      9 C         142.5447  139.6262  158.9766 C.ar    1  UNL1        0.0543
     10 C         142.3777  138.1843  158.5985 C.ar    1  UNL1        0.0124
     11 C         142.8208  137.7070  157.2472 C.ar    1  UNL1        0.0382
     12 C         142.6538  136.2651  156.8691 C.1     1  UNL1       -0.0585
     13 C         142.4868  134.8232  156.4910 C.1     1  UNL1       -0.0388
     14 C         142.3198  133.3813  156.1128 C.ar    1  UNL1        0.1451
     15 C         141.3222  132.8362  155.1340 C.ar    1  UNL1        0.1281
     16 N         141.5069  131.3494  155.0634 N.ar    1  UNL1       -0.2228
     17 C         142.6186  130.9754  155.9984 C.ar    1  UNL1        0.1646
     18 C         143.2383  129.6536  156.3431 C.ar    1  UNL1        0.0405
     19 C         144.3605  129.5876  157.3364 C.ar    1  UNL1        0.0256
     20 C         144.8628  130.8434  157.9850 C.ar    1  UNL1        0.1207
     21 N         144.2431  132.1652  157.6403 N.ar    1  UNL1       -0.1616
     22 N         143.1210  132.2313  156.6471 N.ar    1  UNL1       -0.2030
     23 C         141.4012  142.0398  161.9121 C.ar    1  UNL1        0.0514
     24 C         142.4145  142.5272  162.9048 C.ar    1  UNL1        0.0145
     25 C         141.9714  143.0043  164.2561 C.ar    1  UNL1       -0.0008
     26 C         140.5149  142.9941  164.6147 C.ar    1  UNL1        0.0045
     27 C         139.5016  142.5067  163.6219 C.ar    1  UNL1        0.0562
     28 CL        138.0451  142.4964  163.9804 Cl      1  UNL1       -0.0825
     29 C         139.9447  142.0295  162.2706 C.ar    1  UNL1        0.0258
     30 C         140.0718  143.4712  165.9660 C.3     1  UNL1        0.1000
     31 N         140.1163  142.5406  167.1416 N.3     1  UNL1       -0.2675
     32 C         139.8698  141.0740  166.9470 C.3     1  UNL1        0.0729
     33 C         139.9143  140.1434  168.1226 C.3     1  UNL1        0.0251
     34 C         140.2053  140.6796  169.4929 C.3     1  UNL1        0.0652
     35 C         140.3133  140.0099  170.8307 C.2     1  UNL1        0.0921
     36 N         140.6266  141.0627  171.8522 N.2     1  UNL1       -0.1886
     37 N         140.7121  142.3831  171.1457 N.pl3   1  UNL1       -0.2575
     38 C         140.4518  142.1464  169.6876 C.3     1  UNL1        0.1088
     39 C         140.4073  143.0769  168.5119 C.3     1  UNL1        0.0940
     40 H         140.9053  143.2525  171.5654 H       1  UNL1        0.1687
@<TRIPOS>BOND
     1     5     6    1
     2     6     7   ar
     3     7     8   ar
     4     8     9   ar
     5     9     1    1
     6     1     2    2
     7     1     3   am
     8     3    23    1
     9    23    24   ar
    10    24    25   ar
    11    25    26   ar
    12    26    30    1
    13    30    31    1
    14    31    32    1
    15    32    33    1
    16    33    34    1
    17    34    35    1
    18    35    36    2
    19    36    37    1
    20    37    38    1
    21    38    39    1
    22    26    27   ar
    23    27    28    1
    24    27    29   ar
    25     9    10   ar
    26    10    11   ar
    27    11    12    1
    28    12    13    3
    29    13    14    1
    30    14    15   ar
    31    15    16   ar
    32    16    17   ar
    33    17    18   ar
    34    18    19   ar
    35    19    20   ar
    36    20    21   ar
    37    21    22   ar
    38    11     6   ar
    39    22    14   ar
    40    29    23   ar
    41    22    17   ar
    42    39    31    1
    43    38    34    1
    44     3     4    1
    45    37    40    1
