@<TRIPOS>MOLECULE
*****
 42 47 0 0 0
SMALL
GASTEIGER

@<TRIPOS>ATOM
      1 N         143.6490  139.0201  157.7926 N.am    1  UNL1       -0.2804
      2 C         142.3394  138.3594  157.4788 C.2     1  UNL1        0.2495
      3 O         141.1419  138.6192  158.3440 O.2     1  UNL1       -0.2698
      4 H         144.4350  138.8495  157.2247 H       1  UNL1        0.1552
      5 C         142.2273  137.4388  156.2999 C.ar    1  UNL1        0.0543
      6 C         142.0853  138.0040  154.9177 C.ar    1  UNL1        0.0042
      7 C         141.9732  137.0834  153.7388 C.ar    1  UNL1       -0.0035
      8 C         142.0030  135.5975  153.9420 C.ar    1  UNL1       -0.0142
      9 C         141.8909  134.6769  152.7631 C.3     1  UNL1        0.0317
     10 C         142.1451  135.0323  155.3241 C.ar    1  UNL1        0.0382
     11 C         142.2572  135.9529  156.5031 C.ar    1  UNL1        0.0124
     12 C         142.1749  133.5464  155.5273 C.1     1  UNL1       -0.0585
     13 C         142.2048  132.0605  155.7306 C.1     1  UNL1       -0.0388
     14 C         142.2347  130.5746  155.9338 C.ar    1  UNL1        0.1451
     15 C         141.3837  129.5693  155.2160 C.ar    1  UNL1        0.1281
     16 N         141.7439  128.2066  155.7291 N.ar    1  UNL1       -0.2228
     17 C         142.8175  128.3697  156.7638 C.ar    1  UNL1        0.1646
     18 C         143.5581  127.3746  157.6072 C.ar    1  UNL1        0.0405
     19 C         144.6020  127.8431  158.5771 C.ar    1  UNL1        0.0256
     20 C         144.9053  129.3067  158.7037 C.ar    1  UNL1        0.1207
     21 N         144.1647  130.3017  157.8603 N.ar    1  UNL1       -0.1616
     22 N         143.1208  129.8332  156.8904 N.ar    1  UNL1       -0.2030
     23 C         143.9854  141.7820  161.3294 C.ar    1  UNL1       -0.0100
     24 C         143.8170  142.3469  159.9501 C.ar    1  UNL1       -0.0020
     25 C         143.7049  141.4262  158.7711 C.ar    1  UNL1        0.0144
     26 C         143.7612  139.9407  158.9715 C.ar    1  UNL1        0.0502
     27 C         143.9296  139.3759  160.3508 C.ar    1  UNL1        0.0101
     28 C         144.0417  140.2965  161.5298 C.ar    1  UNL1       -0.0239
     29 C         144.2102  139.7316  162.9091 C.3     1  UNL1        0.0221
     30 C         145.0277  139.5722  164.1566 C.3     1  UNL1        0.0047
     31 C         143.6846  138.9126  164.0505 C.3     1  UNL1        0.0047
     32 C         144.0976  142.7026  162.5083 C.3     1  UNL1        0.0989
     33 N         140.3796  144.2535  164.5135 N.3     1  UNL1       -0.2682
     34 C         141.0662  143.0318  165.0484 C.3     1  UNL1        0.0897
     35 C         142.3055  142.5148  164.3800 C.3     1  UNL1        0.0899
     36 N         142.8582  143.2195  163.1768 N.3     1  UNL1       -0.2665
     37 C         142.1716  144.4412  162.6418 C.3     1  UNL1        0.0899
     38 C         140.9323  144.9582  163.3102 C.3     1  UNL1        0.0897
     39 C         139.1402  144.7705  165.1820 C.3     1  UNL1        0.1046
     40 C         137.7888  144.3555  164.6803 C.3     1  UNL1        0.1595
     41 C         137.7254  142.6388  162.7314 C.3     1  UNL1        0.1742
     42 O         137.5907  144.0486  163.2255 O.3     1  UNL1       -0.3496
@<TRIPOS>BOND
     1    41    42    1
     2    42    40    1
     3    40    39    1
     4    39    33    1
     5    33    34    1
     6    34    35    1
     7    35    36    1
     8    36    32    1
     9    32    23    1
    10    23    24   ar
    11    24    25   ar
    12    25    26   ar
    13    26     1    1
    14     1     2   am
    15     2     3    2
    16     2     5    1
    17     5     6   ar
    18     6     7   ar
    19     7     8   ar
    20     8     9    1
    21     8    10   ar
    22    10    12    1
    23    12    13    3
    24    13    14    1
    25    14    15   ar
    26    15    16   ar
    27    16    17   ar
    28    17    18   ar
    29    18    19   ar
    30    19    20   ar
    31    20    21   ar
    32    21    22   ar
    33    10    11   ar
    34    26    27   ar
    35    27    28   ar
    36    28    29    1
    37    29    30    1
    38    30    31    1
    39    36    37    1
    40    37    38    1
    41    38    33    1
    42    28    23   ar
    43    31    29    1
    44    11     5   ar
    45    22    14   ar
    46    22    17   ar
    47     1     4    1
@<TRIPOS>MOLECULE
*****
 42 47 0 0 0
SMALL
GASTEIGER

@<TRIPOS>ATOM
      1 N         141.2415  138.5944  160.2258 N.am    1  UNL1       -0.2804
      2 C         142.1837  138.2475  159.1114 C.2     1  UNL1        0.2495
      3 O         143.6260  137.9630  159.4098 O.2     1  UNL1       -0.2698
      4 H         140.2949  138.7811  160.0299 H       1  UNL1        0.1552
      5 C         141.6838  138.1851  157.6986 C.ar    1  UNL1        0.0543
      6 C         142.5229  137.5434  156.6336 C.ar    1  UNL1        0.0042
      7 C         142.0229  137.4810  155.2208 C.ar    1  UNL1       -0.0035
      8 C         140.6838  138.0603  154.8729 C.ar    1  UNL1       -0.0142
      9 C         140.1838  137.9979  153.4600 C.3     1  UNL1        0.0317
     10 C         139.8446  138.7020  155.9378 C.ar    1  UNL1        0.0382
     11 C         140.3446  138.7644  157.3506 C.ar    1  UNL1        0.0124
     12 C         138.5055  139.2813  155.5898 C.1     1  UNL1       -0.0585
     13 C         137.1663  139.8607  155.2419 C.1     1  UNL1       -0.0388
     14 C         135.8272  140.4401  154.8939 C.ar    1  UNL1        0.1451
     15 C         135.5169  141.2849  153.6939 C.ar    1  UNL1        0.1281
     16 N         134.0611  141.6431  153.7432 N.ar    1  UNL1       -0.2228
     17 C         133.4718  141.0198  154.9737 C.ar    1  UNL1        0.1646
     18 C         132.0822  141.0332  155.5385 C.ar    1  UNL1        0.0405
     19 C         131.7842  140.3030  156.8144 C.ar    1  UNL1        0.0256
     20 C         132.8757  139.5595  157.5255 C.ar    1  UNL1        0.1207
     21 N         134.2652  139.5461  156.9608 N.ar    1  UNL1       -0.1616
     22 N         134.5633  140.2762  155.6849 N.ar    1  UNL1       -0.2030
     23 C         142.7414  138.7815  164.4644 C.ar    1  UNL1       -0.0100
     24 C         141.7456  137.7326  164.0668 C.ar    1  UNL1       -0.0020
     25 C         141.2457  137.6702  162.6539 C.ar    1  UNL1        0.0144
     26 C         141.7415  138.6568  161.6386 C.ar    1  UNL1        0.0502
     27 C         142.7372  139.7057  162.0362 C.ar    1  UNL1        0.0101
     28 C         143.2372  139.7681  163.4491 C.ar    1  UNL1       -0.0239
     29 C         144.2330  140.8171  163.8466 C.3     1  UNL1        0.0221
     30 C         145.6503  141.3038  163.9136 C.3     1  UNL1        0.0047
     31 C         144.5405  142.1472  164.4681 C.3     1  UNL1        0.0047
     32 C         143.2414  138.8439  165.8772 C.3     1  UNL1        0.0989
     33 N         140.6791  140.6742  169.0919 N.3     1  UNL1       -0.2682
     34 C         140.4455  141.0297  167.6535 C.3     1  UNL1        0.0897
     35 C         141.2995  140.4196  166.5819 C.3     1  UNL1        0.0899
     36 N         142.3872  139.4540  166.9488 N.3     1  UNL1       -0.2665
     37 C         142.6209  139.0985  168.3872 C.3     1  UNL1        0.0899
     38 C         141.7668  139.7086  169.4588 C.3     1  UNL1        0.0897
     39 C         139.8249  141.2843  170.1635 C.3     1  UNL1        0.1046
     40 C         140.2219  142.5898  170.7865 C.3     1  UNL1        0.1595
     41 C         142.7444  143.1245  170.4688 C.3     1  UNL1        0.1742
     42 O         141.5966  142.7586  171.3625 O.3     1  UNL1       -0.3496
@<TRIPOS>BOND
     1    41    42    1
     2    42    40    1
     3    40    39    1
     4    39    33    1
     5    33    34    1
     6    34    35    1
     7    35    36    1
     8    36    32    1
     9    32    23    1
    10    23    24   ar
    11    24    25   ar
    12    25    26   ar
    13    26     1    1
    14     1     2   am
    15     2     3    2
    16     2     5    1
    17     5     6   ar
    18     6     7   ar
    19     7     8   ar
    20     8     9    1
    21     8    10   ar
    22    10    12    1
    23    12    13    3
    24    13    14    1
    25    14    15   ar
    26    15    16   ar
    27    16    17   ar
    28    17    18   ar
    29    18    19   ar
    30    19    20   ar
    31    20    21   ar
    32    21    22   ar
    33    10    11   ar
    34    26    27   ar
    35    27    28   ar
    36    28    29    1
    37    29    30    1
    38    30    31    1
    39    36    37    1
    40    37    38    1
    41    38    33    1
    42    28    23   ar
    43    31    29    1
    44    11     5   ar
    45    22    14   ar
    46    22    17   ar
    47     1     4    1
@<TRIPOS>MOLECULE
*****
 42 47 0 0 0
SMALL
GASTEIGER

@<TRIPOS>ATOM
      1 N         140.0374  138.8486  160.0238 N.am    1  UNL1       -0.2804
      2 C         139.1023  139.2656  158.9276 C.2     1  UNL1        0.2495
      3 O         137.7586  139.8401  159.2661 O.2     1  UNL1       -0.2698
      4 H         140.9193  138.4716  159.8016 H       1  UNL1        0.1552
      5 C         139.5108  139.1082  157.4930 C.ar    1  UNL1        0.0543
      6 C         139.4058  140.2711  156.5512 C.ar    1  UNL1        0.0042
      7 C         139.8143  140.1136  155.1166 C.ar    1  UNL1       -0.0035
      8 C         140.3279  138.7933  154.6235 C.ar    1  UNL1       -0.0142
      9 C         140.7365  138.6359  153.1889 C.3     1  UNL1        0.0317
     10 C         140.4330  137.6306  155.5652 C.ar    1  UNL1        0.0382
     11 C         140.0245  137.7880  156.9999 C.ar    1  UNL1        0.0124
     12 C         140.9466  136.3103  155.0722 C.1     1  UNL1       -0.0585
     13 C         141.4603  134.9900  154.5790 C.1     1  UNL1       -0.0388
     14 C         141.9739  133.6698  154.0860 C.ar    1  UNL1        0.1451
     15 C         141.5659  132.9836  152.8161 C.ar    1  UNL1        0.1281
     16 N         142.3256  131.6936  152.7216 N.ar    1  UNL1       -0.2228
     17 C         143.2031  131.5826  153.9331 C.ar    1  UNL1        0.1646
     18 C         144.1720  130.5272  154.3773 C.ar    1  UNL1        0.0405
     19 C         144.9235  130.6931  155.6648 C.ar    1  UNL1        0.0256
     20 C         144.7061  131.9145  156.5080 C.ar    1  UNL1        0.1207
     21 N         143.7372  132.9699  156.0638 N.ar    1  UNL1       -0.1616
     22 N         142.9857  132.8039  154.7763 N.ar    1  UNL1       -0.2030
     23 C         138.8118  139.3208  164.3279 C.ar    1  UNL1       -0.0100
     24 C         139.1274  137.9593  163.7830 C.ar    1  UNL1       -0.0020
     25 C         139.5360  137.8020  162.3483 C.ar    1  UNL1        0.0144
     26 C         139.6289  139.0060  161.4585 C.ar    1  UNL1        0.0502
     27 C         139.3133  140.3674  162.0034 C.ar    1  UNL1        0.0101
     28 C         138.9048  140.5248  163.4381 C.ar    1  UNL1       -0.0239
     29 C         138.5892  141.8862  163.9830 C.3     1  UNL1        0.0221
     30 C         138.9701  143.0701  164.8216 C.3     1  UNL1        0.0047
     31 C         137.6616  143.0603  164.0882 C.3     1  UNL1        0.0047
     32 C         138.4033  139.4782  165.7626 C.3     1  UNL1        0.0989
     33 N         141.4770  140.5371  168.8739 N.3     1  UNL1       -0.2682
     34 C         140.0824  140.1742  169.2904 C.3     1  UNL1        0.0897
     35 C         139.0578  139.8212  168.2533 C.3     1  UNL1        0.0899
     36 N         139.4279  139.8311  166.7997 N.3     1  UNL1       -0.2665
     37 C         140.8225  140.1941  166.3831 C.3     1  UNL1        0.0899
     38 C         141.8470  140.5470  167.4203 C.3     1  UNL1        0.0897
     39 C         142.5016  140.8902  169.9111 C.3     1  UNL1        0.1046
     40 C         142.9407  142.3148  170.0772 C.3     1  UNL1        0.1595
     41 C         140.8018  143.7680  169.8258 C.3     1  UNL1        0.1742
     42 O         141.9892  143.3328  170.6324 O.3     1  UNL1       -0.3496
@<TRIPOS>BOND
     1    41    42    1
     2    42    40    1
     3    40    39    1
     4    39    33    1
     5    33    34    1
     6    34    35    1
     7    35    36    1
     8    36    32    1
     9    32    23    1
    10    23    24   ar
    11    24    25   ar
    12    25    26   ar
    13    26     1    1
    14     1     2   am
    15     2     3    2
    16     2     5    1
    17     5     6   ar
    18     6     7   ar
    19     7     8   ar
    20     8     9    1
    21     8    10   ar
    22    10    12    1
    23    12    13    3
    24    13    14    1
    25    14    15   ar
    26    15    16   ar
    27    16    17   ar
    28    17    18   ar
    29    18    19   ar
    30    19    20   ar
    31    20    21   ar
    32    21    22   ar
    33    10    11   ar
    34    26    27   ar
    35    27    28   ar
    36    28    29    1
    37    29    30    1
    38    30    31    1
    39    36    37    1
    40    37    38    1
    41    38    33    1
    42    28    23   ar
    43    31    29    1
    44    11     5   ar
    45    22    14   ar
    46    22    17   ar
    47     1     4    1
@<TRIPOS>MOLECULE
*****
 42 47 0 0 0
SMALL
GASTEIGER

@<TRIPOS>ATOM
      1 N         143.7015  138.8139  159.3652 N.am    1  UNL1       -0.2804
      2 C         142.3967  138.2840  158.8488 C.2     1  UNL1        0.2495
      3 O         141.1646  138.3647  159.7005 O.2     1  UNL1       -0.2698
      4 H         144.5102  138.7609  158.8061 H       1  UNL1        0.1552
      5 C         142.3240  137.6735  157.4806 C.ar    1  UNL1        0.0543
      6 C         141.8306  138.4875  156.3212 C.ar    1  UNL1        0.0042
      7 C         141.7579  137.8770  154.9531 C.ar    1  UNL1       -0.0035
      8 C         142.1785  136.4524  154.7442 C.ar    1  UNL1       -0.0142
      9 C         142.1057  135.8419  153.3760 C.3     1  UNL1        0.0317
     10 C         142.6718  135.6384  155.9034 C.ar    1  UNL1        0.0382
     11 C         142.7446  136.2489  157.2716 C.ar    1  UNL1        0.0124
     12 C         143.0924  134.2138  155.6945 C.1     1  UNL1       -0.0585
     13 C         143.5130  132.7892  155.4856 C.1     1  UNL1       -0.0388
     14 C         143.9336  131.3646  155.2766 C.ar    1  UNL1        0.1451
     15 C         144.0709  130.6708  153.9538 C.ar    1  UNL1        0.1281
     16 N         144.5129  129.2611  154.2135 N.ar    1  UNL1       -0.2228
     17 C         144.6487  129.0837  155.6968 C.ar    1  UNL1        0.1646
     18 C         145.0522  127.9063  156.5340 C.ar    1  UNL1        0.0405
     19 C         145.0977  128.0290  158.0282 C.ar    1  UNL1        0.0256
     20 C         144.7396  129.3290  158.6853 C.ar    1  UNL1        0.1207
     21 N         144.3362  130.5064  157.8481 N.ar    1  UNL1       -0.1616
     22 N         144.2907  130.3837  156.3538 N.ar    1  UNL1       -0.2030
     23 C         143.9198  140.6454  163.4698 C.ar    1  UNL1       -0.0100
     24 C         144.0552  139.1609  163.3028 C.ar    1  UNL1       -0.0020
     25 C         143.9825  138.5504  161.9346 C.ar    1  UNL1        0.0144
     26 C         143.7743  139.4244  160.7334 C.ar    1  UNL1        0.0502
     27 C         143.6389  140.9088  160.9005 C.ar    1  UNL1        0.0101
     28 C         143.7116  141.5193  162.2687 C.ar    1  UNL1       -0.0239
     29 C         143.5762  143.0038  162.4357 C.3     1  UNL1        0.0221
     30 C         142.7750  144.2616  162.2734 C.3     1  UNL1        0.0047
     31 C         144.1427  144.3173  162.8871 C.3     1  UNL1        0.0047
     32 C         143.9926  141.2559  164.8380 C.3     1  UNL1        0.0989
     33 N         140.6599  140.5774  167.7846 N.3     1  UNL1       -0.2682
     34 C         141.8319  139.6419  167.7494 C.3     1  UNL1        0.0897
     35 C         142.9428  139.8680  166.7672 C.3     1  UNL1        0.0899
     36 N         142.8817  141.0297  165.8203 N.3     1  UNL1       -0.2665
     37 C         141.7097  141.9653  165.8554 C.3     1  UNL1        0.0899
     38 C         140.5988  141.7391  166.8377 C.3     1  UNL1        0.0897
     39 C         139.5490  140.3513  168.7669 C.3     1  UNL1        0.1046
     40 C         139.4367  141.2192  169.9852 C.3     1  UNL1        0.1595
     41 C         141.7225  141.6108  171.1564 C.3     1  UNL1        0.1742
     42 O         140.3538  140.9971  171.1512 O.3     1  UNL1       -0.3496
@<TRIPOS>BOND
     1    41    42    1
     2    42    40    1
     3    40    39    1
     4    39    33    1
     5    33    34    1
     6    34    35    1
     7    35    36    1
     8    36    32    1
     9    32    23    1
    10    23    24   ar
    11    24    25   ar
    12    25    26   ar
    13    26     1    1
    14     1     2   am
    15     2     3    2
    16     2     5    1
    17     5     6   ar
    18     6     7   ar
    19     7     8   ar
    20     8     9    1
    21     8    10   ar
    22    10    12    1
    23    12    13    3
    24    13    14    1
    25    14    15   ar
    26    15    16   ar
    27    16    17   ar
    28    17    18   ar
    29    18    19   ar
    30    19    20   ar
    31    20    21   ar
    32    21    22   ar
    33    10    11   ar
    34    26    27   ar
    35    27    28   ar
    36    28    29    1
    37    29    30    1
    38    30    31    1
    39    36    37    1
    40    37    38    1
    41    38    33    1
    42    28    23   ar
    43    31    29    1
    44    11     5   ar
    45    22    14   ar
    46    22    17   ar
    47     1     4    1
@<TRIPOS>MOLECULE
*****
 42 47 0 0 0
SMALL
GASTEIGER

@<TRIPOS>ATOM
      1 N         138.8483  139.0530  158.5492 N.am    1  UNL1       -0.2804
      2 C         138.6073  140.4628  158.0973 C.2     1  UNL1        0.2495
      3 O         139.2079  141.6075  158.8583 O.2     1  UNL1       -0.2698
      4 H         138.4541  138.3017  158.0497 H       1  UNL1        0.1552
      5 C         137.7657  140.7281  156.8843 C.ar    1  UNL1        0.0543
      6 C         138.4196  141.0558  155.5746 C.ar    1  UNL1        0.0042
      7 C         137.5780  141.3210  154.3618 C.ar    1  UNL1       -0.0035
      8 C         136.0824  141.2586  154.4583 C.ar    1  UNL1       -0.0142
      9 C         135.2408  141.5238  153.2453 C.3     1  UNL1        0.0317
     10 C         135.4285  140.9309  155.7679 C.ar    1  UNL1        0.0382
     11 C         136.2701  140.6656  156.9808 C.ar    1  UNL1        0.0124
     12 C         133.9329  140.8684  155.8644 C.1     1  UNL1       -0.0585
     13 C         132.4373  140.8059  155.9609 C.1     1  UNL1       -0.0388
     14 C         130.9417  140.7434  156.0575 C.ar    1  UNL1        0.1451
     15 C         129.9721  141.5800  155.2765 C.ar    1  UNL1        0.1281
     16 N         128.5843  141.1870  155.6884 N.ar    1  UNL1       -0.2228
     17 C         128.6962  140.1076  156.7239 C.ar    1  UNL1        0.1646
     18 C         127.6597  139.3389  157.4886 C.ar    1  UNL1        0.0405
     19 C         128.0802  138.2961  158.4813 C.ar    1  UNL1        0.0256
     20 C         129.5372  138.0219  158.7095 C.ar    1  UNL1        0.1207
     21 N         130.5737  138.7906  157.9448 N.ar    1  UNL1       -0.1616
     22 N         130.1532  139.8334  156.9520 N.ar    1  UNL1       -0.2030
     23 C         141.3733  138.2572  162.1881 C.ar    1  UNL1       -0.0100
     24 C         142.0089  138.3062  160.8303 C.ar    1  UNL1       -0.0020
     25 C         141.1672  138.5715  159.6174 C.ar    1  UNL1        0.0144
     26 C         139.6900  138.7877  159.7621 C.ar    1  UNL1        0.0502
     27 C         139.0544  138.7387  161.1199 C.ar    1  UNL1        0.0101
     28 C         139.8960  138.4734  162.3329 C.ar    1  UNL1       -0.0239
     29 C         139.2604  138.4244  163.6906 C.3     1  UNL1        0.0221
     30 C         138.5907  139.1220  164.8374 C.3     1  UNL1        0.0047
     31 C         138.8290  137.6421  164.8956 C.3     1  UNL1        0.0047
     32 C         142.2149  137.9920  163.4011 C.3     1  UNL1        0.0989
     33 N         142.9621  141.2777  166.3835 N.3     1  UNL1       -0.2682
     34 C         143.0679  141.5602  164.9142 C.3     1  UNL1        0.0897
     35 C         142.8189  140.4650  163.9200 C.3     1  UNL1        0.0899
     36 N         142.4640  139.0872  164.3952 N.3     1  UNL1       -0.2665
     37 C         142.3581  138.8047  165.8646 C.3     1  UNL1        0.0899
     38 C         142.6072  139.8999  166.8587 C.3     1  UNL1        0.0897
     39 C         143.2112  142.3730  167.3777 C.3     1  UNL1        0.1046
     40 C         142.9472  142.1372  168.8353 C.3     1  UNL1        0.1595
     41 C         140.5459  143.0700  169.1720 C.3     1  UNL1        0.1742
     42 O         141.9895  143.0221  169.5767 O.3     1  UNL1       -0.3496
@<TRIPOS>BOND
     1    41    42    1
     2    42    40    1
     3    40    39    1
     4    39    33    1
     5    33    34    1
     6    34    35    1
     7    35    36    1
     8    36    32    1
     9    32    23    1
    10    23    24   ar
    11    24    25   ar
    12    25    26   ar
    13    26     1    1
    14     1     2   am
    15     2     3    2
    16     2     5    1
    17     5     6   ar
    18     6     7   ar
    19     7     8   ar
    20     8     9    1
    21     8    10   ar
    22    10    12    1
    23    12    13    3
    24    13    14    1
    25    14    15   ar
    26    15    16   ar
    27    16    17   ar
    28    17    18   ar
    29    18    19   ar
    30    19    20   ar
    31    20    21   ar
    32    21    22   ar
    33    10    11   ar
    34    26    27   ar
    35    27    28   ar
    36    28    29    1
    37    29    30    1
    38    30    31    1
    39    36    37    1
    40    37    38    1
    41    38    33    1
    42    28    23   ar
    43    31    29    1
    44    11     5   ar
    45    22    14   ar
    46    22    17   ar
    47     1     4    1
@<TRIPOS>MOLECULE
*****
 42 47 0 0 0
SMALL
GASTEIGER

@<TRIPOS>ATOM
      1 N         140.5179  138.6366  160.4322 N.am    1  UNL1       -0.2804
      2 C         141.9672  138.8932  160.1430 C.2     1  UNL1        0.2495
      3 O         142.8898  139.3131  161.2487 O.2     1  UNL1       -0.2698
      4 H         139.9124  138.3610  159.7065 H       1  UNL1        0.1552
      5 C         142.4939  138.7298  158.7481 C.ar    1  UNL1        0.0543
      6 C         143.1089  139.8987  158.0368 C.ar    1  UNL1        0.0042
      7 C         143.6356  139.7353  156.6420 C.ar    1  UNL1       -0.0035
      8 C         143.5474  138.4031  155.9581 C.ar    1  UNL1       -0.0142
      9 C         144.0742  138.2398  154.5632 C.3     1  UNL1        0.0317
     10 C         142.9325  137.2344  156.6693 C.ar    1  UNL1        0.0382
     11 C         142.4057  137.3977  158.0642 C.ar    1  UNL1        0.0124
     12 C         142.8443  135.9022  155.9855 C.1     1  UNL1       -0.0585
     13 C         142.7562  134.5701  155.3016 C.1     1  UNL1       -0.0388
     14 C         142.6680  133.2379  154.6178 C.ar    1  UNL1        0.1451
     15 C         142.3947  133.0113  153.1604 C.ar    1  UNL1        0.1281
     16 N         142.3954  131.5319  152.9132 N.ar    1  UNL1       -0.2228
     17 C         142.6692  130.8440  154.2178 C.ar    1  UNL1        0.1646
     18 C         142.7869  129.3939  154.5826 C.ar    1  UNL1        0.0405
     19 C         143.0730  128.9981  156.0008 C.ar    1  UNL1        0.0256
     20 C         143.2415  130.0525  157.0543 C.ar    1  UNL1        0.1207
     21 N         143.1238  131.5027  156.6896 N.ar    1  UNL1       -0.1616
     22 N         142.8377  131.8985  155.2713 N.ar    1  UNL1       -0.2030
     23 C         138.9376  139.1265  164.6171 C.ar    1  UNL1       -0.0100
     24 C         139.3086  137.7644  164.1102 C.ar    1  UNL1       -0.0020
     25 C         139.8354  137.6011  162.7152 C.ar    1  UNL1        0.0144
     26 C         139.9911  138.7999  161.8272 C.ar    1  UNL1        0.0502
     27 C         139.6201  140.1620  162.3341 C.ar    1  UNL1        0.0101
     28 C         139.0933  140.3253  163.7290 C.ar    1  UNL1       -0.0239
     29 C         138.7223  141.6874  164.2359 C.3     1  UNL1        0.0221
     30 C         139.1259  143.0217  164.7899 C.3     1  UNL1        0.0047
     31 C         137.6762  142.7124  164.5598 C.3     1  UNL1        0.0047
     32 C         138.4109  139.2898  166.0120 C.3     1  UNL1        0.0989
     33 N         141.2015  140.4358  169.3509 N.3     1  UNL1       -0.2682
     34 C         139.7384  140.2526  169.6259 C.3     1  UNL1        0.0897
     35 C         138.8081  139.8706  168.5130 C.3     1  UNL1        0.0899
     36 N         139.3411  139.6718  167.1250 N.3     1  UNL1       -0.2665
     37 C         140.8043  139.8550  166.8500 C.3     1  UNL1        0.0899
     38 C         141.7345  140.2370  167.9629 C.3     1  UNL1        0.0897
     39 C         142.1318  140.8178  170.4640 C.3     1  UNL1        0.1046
     40 C         141.8988  142.0830  171.2353 C.3     1  UNL1        0.1595
     41 C         140.6426  143.8716  169.8308 C.3     1  UNL1        0.1742
     42 O         141.8878  143.4036  170.5241 O.3     1  UNL1       -0.3496
@<TRIPOS>BOND
     1    41    42    1
     2    42    40    1
     3    40    39    1
     4    39    33    1
     5    33    34    1
     6    34    35    1
     7    35    36    1
     8    36    32    1
     9    32    23    1
    10    23    24   ar
    11    24    25   ar
    12    25    26   ar
    13    26     1    1
    14     1     2   am
    15     2     3    2
    16     2     5    1
    17     5     6   ar
    18     6     7   ar
    19     7     8   ar
    20     8     9    1
    21     8    10   ar
    22    10    12    1
    23    12    13    3
    24    13    14    1
    25    14    15   ar
    26    15    16   ar
    27    16    17   ar
    28    17    18   ar
    29    18    19   ar
    30    19    20   ar
    31    20    21   ar
    32    21    22   ar
    33    10    11   ar
    34    26    27   ar
    35    27    28   ar
    36    28    29    1
    37    29    30    1
    38    30    31    1
    39    36    37    1
    40    37    38    1
    41    38    33    1
    42    28    23   ar
    43    31    29    1
    44    11     5   ar
    45    22    14   ar
    46    22    17   ar
    47     1     4    1
@<TRIPOS>MOLECULE
*****
 42 47 0 0 0
SMALL
GASTEIGER

@<TRIPOS>ATOM
      1 N         137.9449  140.2072  159.2244 N.am    1  UNL1       -0.2804
      2 C         138.6141  140.3420  157.8888 C.2     1  UNL1        0.2495
      3 O         140.0924  140.1199  157.7646 O.2     1  UNL1       -0.2698
      4 H         136.9747  140.3530  159.3058 H       1  UNL1        0.1552
      5 C         137.8050  140.6988  156.6771 C.ar    1  UNL1        0.0543
      6 C         138.4942  141.0559  155.3935 C.ar    1  UNL1        0.0042
      7 C         137.6850  141.4127  154.1820 C.ar    1  UNL1       -0.0035
      8 C         136.1868  141.4124  154.2539 C.ar    1  UNL1       -0.0142
      9 C         135.3777  141.7693  153.0423 C.3     1  UNL1        0.0317
     10 C         135.4977  141.0553  155.5374 C.ar    1  UNL1        0.0382
     11 C         136.3068  140.6985  156.7491 C.ar    1  UNL1        0.0124
     12 C         133.9994  141.0550  155.6093 C.1     1  UNL1       -0.0585
     13 C         132.5011  141.0547  155.6813 C.1     1  UNL1       -0.0388
     14 C         131.0028  141.0544  155.7532 C.ar    1  UNL1        0.1451
     15 C         130.0788  141.8677  154.8960 C.ar    1  UNL1        0.1281
     16 N         128.6704  141.5566  155.3080 N.ar    1  UNL1       -0.2228
     17 C         128.7240  140.5512  156.4198 C.ar    1  UNL1        0.1646
     18 C         127.6464  139.8782  157.2172 C.ar    1  UNL1        0.0405
     19 C         128.0104  138.8948  158.2897 C.ar    1  UNL1        0.0256
     20 C         129.4519  138.5844  158.5649 C.ar    1  UNL1        0.1207
     21 N         130.5294  139.2573  157.7675 N.ar    1  UNL1       -0.1616
     22 N         130.1655  140.2407  156.6950 N.ar    1  UNL1       -0.2030
     23 C         140.3722  139.1367  162.8593 C.ar    1  UNL1       -0.0100
     24 C         139.6671  138.0625  162.0854 C.ar    1  UNL1       -0.0020
     25 C         138.8580  138.4194  160.8737 C.ar    1  UNL1        0.0144
     26 C         138.7540  139.8504  160.4360 C.ar    1  UNL1        0.0502
     27 C         139.4591  140.9245  161.2101 C.ar    1  UNL1        0.0101
     28 C         140.2682  140.5676  162.4217 C.ar    1  UNL1       -0.0239
     29 C         140.9733  141.6418  163.1957 C.3     1  UNL1        0.0221
     30 C         141.0256  142.5776  164.3668 C.3     1  UNL1        0.0047
     31 C         142.1422  142.5664  163.3651 C.3     1  UNL1        0.0047
     32 C         141.1813  138.7798  164.0710 C.3     1  UNL1        0.0989
     33 N         139.6492  139.7952  168.1784 N.3     1  UNL1       -0.2682
     34 C         141.1141  139.9064  167.8757 C.3     1  UNL1        0.0897
     35 C         141.6249  139.5679  166.5065 C.3     1  UNL1        0.0899
     36 N         140.6706  139.1183  165.4401 N.3     1  UNL1       -0.2665
     37 C         139.2057  139.0071  165.7428 C.3     1  UNL1        0.0899
     38 C         138.6950  139.3456  167.1120 C.3     1  UNL1        0.0897
     39 C         139.1385  140.1337  169.5476 C.3     1  UNL1        0.1046
     40 C         140.0991  140.2888  170.6893 C.3     1  UNL1        0.1595
     41 C         139.7953  142.8672  170.5950 C.3     1  UNL1        0.1742
     42 O         140.4117  141.6541  171.2261 O.3     1  UNL1       -0.3496
@<TRIPOS>BOND
     1    41    42    1
     2    42    40    1
     3    40    39    1
     4    39    33    1
     5    33    34    1
     6    34    35    1
     7    35    36    1
     8    36    32    1
     9    32    23    1
    10    23    24   ar
    11    24    25   ar
    12    25    26   ar
    13    26     1    1
    14     1     2   am
    15     2     3    2
    16     2     5    1
    17     5     6   ar
    18     6     7   ar
    19     7     8   ar
    20     8     9    1
    21     8    10   ar
    22    10    12    1
    23    12    13    3
    24    13    14    1
    25    14    15   ar
    26    15    16   ar
    27    16    17   ar
    28    17    18   ar
    29    18    19   ar
    30    19    20   ar
    31    20    21   ar
    32    21    22   ar
    33    10    11   ar
    34    26    27   ar
    35    27    28   ar
    36    28    29    1
    37    29    30    1
    38    30    31    1
    39    36    37    1
    40    37    38    1
    41    38    33    1
    42    28    23   ar
    43    31    29    1
    44    11     5   ar
    45    22    14   ar
    46    22    17   ar
    47     1     4    1
@<TRIPOS>MOLECULE
*****
 42 47 0 0 0
SMALL
GASTEIGER

@<TRIPOS>ATOM
      1 N         139.3602  141.5768  159.5303 N.am    1  UNL1       -0.2804
      2 C         139.2263  140.1051  159.2730 C.2     1  UNL1        0.2495
      3 O         139.1149  139.1495  160.4239 O.2     1  UNL1       -0.2698
      4 H         139.4333  142.2039  158.7749 H       1  UNL1        0.1552
      5 C         139.2038  139.5889  157.8648 C.ar    1  UNL1        0.0543
      6 C         138.4385  140.3277  156.8072 C.ar    1  UNL1        0.0042
      7 C         138.4161  139.8116  155.3991 C.ar    1  UNL1       -0.0035
      8 C         139.1590  138.5565  155.0483 C.ar    1  UNL1       -0.0142
      9 C         139.1365  138.0404  153.6401 C.3     1  UNL1        0.0317
     10 C         139.9243  137.8177  156.1058 C.ar    1  UNL1        0.0382
     11 C         139.9468  138.3339  157.5141 C.ar    1  UNL1        0.0124
     12 C         140.6672  136.5627  155.7551 C.1     1  UNL1       -0.0585
     13 C         141.4101  135.3076  155.4045 C.1     1  UNL1       -0.0388
     14 C         142.1531  134.0526  155.0537 C.ar    1  UNL1        0.1451
     15 C         142.0097  133.2692  153.7826 C.ar    1  UNL1        0.1281
     16 N         142.9378  132.0931  153.8559 N.ar    1  UNL1       -0.2228
     17 C         143.6548  132.1497  155.1722 C.ar    1  UNL1        0.1646
     18 C         144.6866  131.2549  155.7924 C.ar    1  UNL1        0.0405
     19 C         145.2334  131.5711  157.1528 C.ar    1  UNL1        0.0256
     20 C         144.7484  132.7822  157.8931 C.ar    1  UNL1        0.1207
     21 N         143.7166  133.6770  157.2730 N.ar    1  UNL1       -0.1616
     22 N         143.1698  133.3607  155.9125 N.ar    1  UNL1       -0.2030
     23 C         139.4275  143.1253  163.7550 C.ar    1  UNL1       -0.0100
     24 C         138.1198  142.7996  163.0963 C.ar    1  UNL1       -0.0020
     25 C         138.0974  142.2834  161.6881 C.ar    1  UNL1        0.0144
     26 C         139.3826  142.0929  160.9385 C.ar    1  UNL1        0.0502
     27 C         140.6903  142.4186  161.5972 C.ar    1  UNL1        0.0101
     28 C         140.7127  142.9347  163.0054 C.ar    1  UNL1       -0.0239
     29 C         142.0204  143.2604  163.6641 C.3     1  UNL1        0.0221
     30 C         142.9053  143.2409  164.8752 C.3     1  UNL1        0.0047
     31 C         143.4005  143.8437  163.5939 C.3     1  UNL1        0.0047
     32 C         139.4499  143.6414  165.1632 C.3     1  UNL1        0.0989
     33 N         140.3048  140.8346  168.5750 N.3     1  UNL1       -0.2682
     34 C         139.7669  140.3001  167.2808 C.3     1  UNL1        0.0897
     35 C         139.4819  141.2356  166.1435 C.3     1  UNL1        0.0899
     36 N         139.7349  142.7058  166.3004 N.3     1  UNL1       -0.2665
     37 C         140.2728  143.2404  167.5947 C.3     1  UNL1        0.0899
     38 C         140.5578  142.3048  168.7319 C.3     1  UNL1        0.0897
     39 C         140.5898  139.8989  169.7123 C.3     1  UNL1        0.1046
     40 C         141.9693  139.3391  169.8953 C.3     1  UNL1        0.1595
     41 C         143.0065  138.9621  167.5433 C.3     1  UNL1        0.1742
     42 O         143.0380  139.6329  168.8846 O.3     1  UNL1       -0.3496
@<TRIPOS>BOND
     1    41    42    1
     2    42    40    1
     3    40    39    1
     4    39    33    1
     5    33    34    1
     6    34    35    1
     7    35    36    1
     8    36    32    1
     9    32    23    1
    10    23    24   ar
    11    24    25   ar
    12    25    26   ar
    13    26     1    1
    14     1     2   am
    15     2     3    2
    16     2     5    1
    17     5     6   ar
    18     6     7   ar
    19     7     8   ar
    20     8     9    1
    21     8    10   ar
    22    10    12    1
    23    12    13    3
    24    13    14    1
    25    14    15   ar
    26    15    16   ar
    27    16    17   ar
    28    17    18   ar
    29    18    19   ar
    30    19    20   ar
    31    20    21   ar
    32    21    22   ar
    33    10    11   ar
    34    26    27   ar
    35    27    28   ar
    36    28    29    1
    37    29    30    1
    38    30    31    1
    39    36    37    1
    40    37    38    1
    41    38    33    1
    42    28    23   ar
    43    31    29    1
    44    11     5   ar
    45    22    14   ar
    46    22    17   ar
    47     1     4    1
@<TRIPOS>MOLECULE
*****
 42 47 0 0 0
SMALL
GASTEIGER

@<TRIPOS>ATOM
      1 N         141.5314  138.2796  159.2833 N.am    1  UNL1       -0.2804
      2 C         142.5845  138.3170  158.2158 C.2     1  UNL1        0.2495
      3 O         143.7259  139.2845  158.3217 O.2     1  UNL1       -0.2698
      4 H         140.7823  137.6446  159.2138 H       1  UNL1        0.1552
      5 C         142.4962  137.3868  157.0424 C.ar    1  UNL1        0.0543
      6 C         141.9536  137.8797  155.7336 C.ar    1  UNL1        0.0042
      7 C         141.8653  136.9495  154.5603 C.ar    1  UNL1       -0.0035
      8 C         142.3197  135.5264  154.6955 C.ar    1  UNL1       -0.0142
      9 C         142.2315  134.5962  153.5220 C.3     1  UNL1        0.0317
     10 C         142.8624  135.0335  156.0041 C.ar    1  UNL1        0.0382
     11 C         142.9506  135.9637  157.1775 C.ar    1  UNL1        0.0124
     12 C         143.3167  133.6104  156.1393 C.1     1  UNL1       -0.0585
     13 C         143.7712  132.1873  156.2743 C.1     1  UNL1       -0.0388
     14 C         144.2255  130.7641  156.4095 C.ar    1  UNL1        0.1451
     15 C         144.3918  130.0100  157.6955 C.ar    1  UNL1        0.1281
     16 N         144.8624  128.6251  157.3631 N.ar    1  UNL1       -0.2228
     17 C         144.9871  128.5233  155.8718 C.ar    1  UNL1        0.1646
     18 C         145.4082  127.3976  154.9743 C.ar    1  UNL1        0.0405
     19 C         145.4357  127.5939  153.4875 C.ar    1  UNL1        0.0256
     20 C         145.0420  128.9159  152.8981 C.ar    1  UNL1        0.1207
     21 N         144.6209  130.0416  153.7956 N.ar    1  UNL1       -0.1616
     22 N         144.5935  129.8453  155.2824 N.ar    1  UNL1       -0.2030
     23 C         141.7961  141.0702  162.8037 C.ar    1  UNL1       -0.0100
     24 C         140.6799  141.2171  161.8125 C.ar    1  UNL1       -0.0020
     25 C         140.5917  140.2869  160.6390 C.ar    1  UNL1        0.0144
     26 C         141.6197  139.2098  160.4568 C.ar    1  UNL1        0.0502
     27 C         142.7358  139.0629  161.4480 C.ar    1  UNL1        0.0101
     28 C         142.8241  139.9931  162.6214 C.ar    1  UNL1       -0.0239
     29 C         143.9403  139.8462  163.6126 C.3     1  UNL1        0.0221
     30 C         144.5184  139.1869  164.8297 C.3     1  UNL1        0.0047
     31 C         145.2955  140.2508  164.1124 C.3     1  UNL1        0.0047
     32 C         141.8844  142.0004  163.9771 C.3     1  UNL1        0.0989
     33 N         141.4208  140.3995  168.1571 N.3     1  UNL1       -0.2682
     34 C         140.5575  139.8695  167.0509 C.3     1  UNL1        0.0897
     35 C         140.7119  140.4030  165.6576 C.3     1  UNL1        0.0899
     36 N         141.7299  141.4667  165.3704 N.3     1  UNL1       -0.2665
     37 C         142.5933  141.9968  166.4766 C.3     1  UNL1        0.0899
     38 C         142.4387  141.4632  167.8699 C.3     1  UNL1        0.0897
     39 C         141.2663  139.8659  169.5505 C.3     1  UNL1        0.1046
     40 C         140.0653  140.2396  170.3678 C.3     1  UNL1        0.1595
     41 C         139.9131  142.8309  170.4764 C.3     1  UNL1        0.1742
     42 O         140.0679  141.5086  171.1675 O.3     1  UNL1       -0.3496
@<TRIPOS>BOND
     1    41    42    1
     2    42    40    1
     3    40    39    1
     4    39    33    1
     5    33    34    1
     6    34    35    1
     7    35    36    1
     8    36    32    1
     9    32    23    1
    10    23    24   ar
    11    24    25   ar
    12    25    26   ar
    13    26     1    1
    14     1     2   am
    15     2     3    2
    16     2     5    1
    17     5     6   ar
    18     6     7   ar
    19     7     8   ar
    20     8     9    1
    21     8    10   ar
    22    10    12    1
    23    12    13    3
    24    13    14    1
    25    14    15   ar
    26    15    16   ar
    27    16    17   ar
    28    17    18   ar
    29    18    19   ar
    30    19    20   ar
    31    20    21   ar
    32    21    22   ar
    33    10    11   ar
    34    26    27   ar
    35    27    28   ar
    36    28    29    1
    37    29    30    1
    38    30    31    1
    39    36    37    1
    40    37    38    1
    41    38    33    1
    42    28    23   ar
    43    31    29    1
    44    11     5   ar
    45    22    14   ar
    46    22    17   ar
    47     1     4    1
