@<TRIPOS>MOLECULE
*****
 28 30 0 0 0
SMALL
GASTEIGER

@<TRIPOS>ATOM
      1 N         142.1776  143.8015  162.0191 N.3     1  UNL1       -0.2682
      2 C         141.6842  142.4145  162.3075 C.3     1  UNL1        0.0897
      3 C         142.0244  141.7532  163.6102 C.3     1  UNL1        0.0899
      4 N         142.8580  142.4787  164.6244 N.3     1  UNL1       -0.2665
      5 C         143.3514  143.8656  164.3360 C.3     1  UNL1        0.0899
      6 C         143.0112  144.5270  163.0334 C.3     1  UNL1        0.0897
      7 C         141.8374  144.4628  160.7165 C.3     1  UNL1        0.1056
      8 O         139.7656  145.0409  159.2593 O.3     1  UNL1       -0.3793
      9 C         140.5193  145.1592  160.5508 C.3     1  UNL1        0.1700
     10 H         138.9405  145.5473  159.3188 H       1  UNL1        0.2106
     11 C         139.9548  145.9741  161.6766 C.3     1  UNL1        0.2358
     12 O         138.6442  145.5900  162.2968 O.3     1  UNL1       -0.4728
     13 C         138.5400  144.3367  163.1144 C.ar    1  UNL1        0.1388
     14 C         139.2171  144.2542  164.4503 C.ar    1  UNL1        0.0392
     15 C         139.1130  143.0010  165.2678 C.ar    1  UNL1        0.0327
     16 C         138.3317  141.8301  164.7494 C.ar    1  UNL1        0.1403
     17 F         138.2275  140.5768  165.5670 F       1  UNL1       -0.2042
     18 C         137.6545  141.9126  163.4135 C.ar    1  UNL1        0.0327
     19 C         137.7587  143.1658  162.5960 C.ar    1  UNL1        0.0392
     20 C         143.1982  141.8174  165.9270 C.3     1  UNL1        0.0992
     21 C         142.1183  141.5340  166.9289 C.ar    1  UNL1       -0.0052
     22 C         141.4567  140.1881  166.9579 C.ar    1  UNL1       -0.0020
     23 C         140.3769  139.9046  167.9596 C.ar    1  UNL1        0.0120
     24 C         139.9586  140.9671  168.9324 C.ar    1  UNL1        0.0682
     25 CL        138.8787  140.6836  169.9342 Cl      1  UNL1       -0.0814
     26 C         140.6202  142.3130  168.9034 C.ar    1  UNL1        0.0679
     27 CL        140.2019  143.3755  169.8761 Cl      1  UNL1       -0.0814
     28 C         141.7001  142.5964  167.9016 C.ar    1  UNL1        0.0093
@<TRIPOS>BOND
     1     9     8    1
     2     9    11    1
     3    11    12    1
     4    12    13    1
     5    13    14   ar
     6    14    15   ar
     7    15    16   ar
     8    16    17    1
     9    16    18   ar
    10    18    19   ar
    11     9     7    1
    12     7     1    1
    13     1     2    1
    14     2     3    1
    15     3     4    1
    16     4    20    1
    17    20    21    1
    18    21    22   ar
    19    22    23   ar
    20    23    24   ar
    21    24    25    1
    22    24    26   ar
    23    26    27    1
    24    26    28   ar
    25     4     5    1
    26     5     6    1
    27    19    13   ar
    28     6     1    1
    29    28    21   ar
    30     8    10    1
@<TRIPOS>MOLECULE
*****
 28 30 0 0 0
SMALL
GASTEIGER

@<TRIPOS>ATOM
      1 N         142.7967  140.2617  168.3439 N.3     1  UNL1       -0.2682
      2 C         143.0398  141.7329  168.1814 C.3     1  UNL1        0.0897
      3 C         143.2817  142.3069  166.8168 C.3     1  UNL1        0.0899
      4 N         143.2806  141.4097  165.6148 N.3     1  UNL1       -0.2665
      5 C         143.0375  139.9385  165.7772 C.3     1  UNL1        0.0899
      6 C         142.7956  139.3644  167.1418 C.3     1  UNL1        0.0897
      7 C         142.5548  139.6877  169.7084 C.3     1  UNL1        0.1056
      8 O         142.0618  140.7654  172.0204 O.3     1  UNL1       -0.3793
      9 C         141.6034  140.3656  170.6493 C.3     1  UNL1        0.1700
     10 H         141.3294  141.1881  172.4957 H       1  UNL1        0.2106
     11 C         140.1936  140.6438  170.2190 C.3     1  UNL1        0.2358
     12 O         139.4646  139.6578  169.3551 O.3     1  UNL1       -0.4728
     13 C         139.2224  139.9646  167.9069 C.ar    1  UNL1        0.1388
     14 C         138.4167  139.0204  167.0648 C.ar    1  UNL1        0.0392
     15 C         138.1745  139.3273  165.6167 C.ar    1  UNL1        0.0327
     16 C         138.7380  140.5784  165.0107 C.ar    1  UNL1        0.1403
     17 F         138.4957  140.8853  163.5625 F       1  UNL1       -0.2042
     18 C         139.5437  141.5226  165.8528 C.ar    1  UNL1        0.0327
     19 C         139.7859  141.2157  167.3009 C.ar    1  UNL1        0.0392
     20 C         143.5225  141.9836  164.2502 C.3     1  UNL1        0.0992
     21 C         142.5829  143.0106  163.6911 C.ar    1  UNL1       -0.0052
     22 C         142.7887  144.4635  164.0019 C.ar    1  UNL1       -0.0020
     23 C         141.8492  145.4905  163.4429 C.ar    1  UNL1        0.0120
     24 C         140.7038  145.0645  162.5730 C.ar    1  UNL1        0.0682
     25 CL        139.7643  146.0915  162.0139 Cl      1  UNL1       -0.0814
     26 C         140.4980  143.6116  162.2622 C.ar    1  UNL1        0.0679
     27 CL        139.3527  143.1856  161.3923 Cl      1  UNL1       -0.0814
     28 C         141.4376  142.5846  162.8213 C.ar    1  UNL1        0.0093
@<TRIPOS>BOND
     1     9     8    1
     2     9    11    1
     3    11    12    1
     4    12    13    1
     5    13    14   ar
     6    14    15   ar
     7    15    16   ar
     8    16    17    1
     9    16    18   ar
    10    18    19   ar
    11     9     7    1
    12     7     1    1
    13     1     2    1
    14     2     3    1
    15     3     4    1
    16     4    20    1
    17    20    21    1
    18    21    22   ar
    19    22    23   ar
    20    23    24   ar
    21    24    25    1
    22    24    26   ar
    23    26    27    1
    24    26    28   ar
    25     4     5    1
    26     5     6    1
    27    19    13   ar
    28     6     1    1
    29    28    21   ar
    30     8    10    1
@<TRIPOS>MOLECULE
*****
 28 30 0 0 0
SMALL
GASTEIGER

@<TRIPOS>ATOM
      1 N         142.1496  143.5002  161.7177 N.3     1  UNL1       -0.2682
      2 C         141.4140  142.2180  161.9725 C.3     1  UNL1        0.0897
      3 C         141.7016  141.4216  163.2106 C.3     1  UNL1        0.0899
      4 N         142.7247  141.9074  164.1941 N.3     1  UNL1       -0.2665
      5 C         143.4603  143.1896  163.9393 C.3     1  UNL1        0.0899
      6 C         143.1728  143.9860  162.7011 C.3     1  UNL1        0.0897
      7 C         141.8620  144.2965  160.4795 C.3     1  UNL1        0.1056
      8 O         139.7611  144.9680  159.1066 O.3     1  UNL1       -0.3793
      9 C         140.5774  145.0618  160.3615 C.3     1  UNL1        0.1700
     10 H         138.9680  145.5195  159.1948 H       1  UNL1        0.2106
     11 C         140.1089  145.9208  161.4985 C.3     1  UNL1        0.2358
     12 O         138.7881  145.6436  162.1533 O.3     1  UNL1       -0.4728
     13 C         138.5973  144.3911  162.9563 C.ar    1  UNL1        0.1388
     14 C         139.2209  144.2689  164.3150 C.ar    1  UNL1        0.0392
     15 C         139.0301  143.0164  165.1179 C.ar    1  UNL1        0.0327
     16 C         138.2155  141.8861  164.5621 C.ar    1  UNL1        0.1403
     17 F         138.0247  140.6335  165.3652 F       1  UNL1       -0.2042
     18 C         137.5919  142.0082  163.2034 C.ar    1  UNL1        0.0327
     19 C         137.7828  143.2607  162.4005 C.ar    1  UNL1        0.0392
     20 C         143.0123  141.1111  165.4322 C.3     1  UNL1        0.0992
     21 C         142.1528  141.2811  166.6498 C.ar    1  UNL1       -0.0052
     22 C         142.4813  142.3425  167.6575 C.ar    1  UNL1       -0.0020
     23 C         141.6218  142.5124  168.8750 C.ar    1  UNL1        0.0120
     24 C         140.4338  141.6210  169.0849 C.ar    1  UNL1        0.0682
     25 CL        139.5743  141.7909  170.3024 Cl      1  UNL1       -0.0814
     26 C         140.1053  140.5596  168.0771 C.ar    1  UNL1        0.0679
     27 CL        138.9173  139.6681  168.2869 Cl      1  UNL1       -0.0814
     28 C         140.9648  140.3896  166.8596 C.ar    1  UNL1        0.0093
@<TRIPOS>BOND
     1     9     8    1
     2     9    11    1
     3    11    12    1
     4    12    13    1
     5    13    14   ar
     6    14    15   ar
     7    15    16   ar
     8    16    17    1
     9    16    18   ar
    10    18    19   ar
    11     9     7    1
    12     7     1    1
    13     1     2    1
    14     2     3    1
    15     3     4    1
    16     4    20    1
    17    20    21    1
    18    21    22   ar
    19    22    23   ar
    20    23    24   ar
    21    24    25    1
    22    24    26   ar
    23    26    27    1
    24    26    28   ar
    25     4     5    1
    26     5     6    1
    27    19    13   ar
    28     6     1    1
    29    28    21   ar
    30     8    10    1
@<TRIPOS>MOLECULE
*****
 28 30 0 0 0
SMALL
GASTEIGER

@<TRIPOS>ATOM
      1 N         140.2409  139.0068  160.1362 N.3     1  UNL1       -0.2682
      2 C         139.2183  138.1500  160.8220 C.3     1  UNL1        0.0897
      3 C         138.4530  138.6886  161.9943 C.3     1  UNL1        0.0899
      4 N         138.7103  140.0839  162.4808 N.3     1  UNL1       -0.2665
      5 C         139.7329  140.9407  161.7951 C.3     1  UNL1        0.0899
      6 C         140.4982  140.4021  160.6227 C.3     1  UNL1        0.0897
      7 C         141.0061  138.4682  158.9639 C.3     1  UNL1        0.1056
      8 O         143.3828  138.5685  157.9193 O.3     1  UNL1       -0.3793
      9 C         142.4844  138.2392  159.0745 C.3     1  UNL1        0.1700
     10 H         144.3010  138.3624  158.1548 H       1  UNL1        0.2106
     11 C         143.0643  137.6810  160.3403 C.3     1  UNL1        0.2358
     12 O         143.8394  138.5707  161.2664 O.3     1  UNL1       -0.4728
     13 C         143.4771  138.6372  162.7205 C.ar    1  UNL1        0.1388
     14 C         144.4502  139.2053  163.7106 C.ar    1  UNL1        0.0392
     15 C         144.0880  139.2718  165.1647 C.ar    1  UNL1        0.0327
     16 C         142.7527  138.7701  165.6286 C.ar    1  UNL1        0.1403
     17 F         142.3905  138.8365  167.0828 F       1  UNL1       -0.2042
     18 C         141.7796  138.2020  164.6385 C.ar    1  UNL1        0.0327
     19 C         142.1418  138.1355  163.1845 C.ar    1  UNL1        0.0392
     20 C         137.9451  140.6225  163.6531 C.3     1  UNL1        0.0992
     21 C         138.4923  140.4677  165.0411 C.ar    1  UNL1       -0.0052
     22 C         138.0343  139.3304  165.9054 C.ar    1  UNL1       -0.0020
     23 C         138.5815  139.1756  167.2934 C.ar    1  UNL1        0.0120
     24 C         139.5868  140.1581  167.8172 C.ar    1  UNL1        0.0682
     25 CL        140.1340  140.0032  169.2052 Cl      1  UNL1       -0.0814
     26 C         140.0448  141.2953  166.9530 C.ar    1  UNL1        0.0679
     27 CL        141.0500  142.2778  167.4767 Cl      1  UNL1       -0.0814
     28 C         139.4975  141.4501  165.5649 C.ar    1  UNL1        0.0093
@<TRIPOS>BOND
     1     9     8    1
     2     9    11    1
     3    11    12    1
     4    12    13    1
     5    13    14   ar
     6    14    15   ar
     7    15    16   ar
     8    16    17    1
     9    16    18   ar
    10    18    19   ar
    11     9     7    1
    12     7     1    1
    13     1     2    1
    14     2     3    1
    15     3     4    1
    16     4    20    1
    17    20    21    1
    18    21    22   ar
    19    22    23   ar
    20    23    24   ar
    21    24    25    1
    22    24    26   ar
    23    26    27    1
    24    26    28   ar
    25     4     5    1
    26     5     6    1
    27    19    13   ar
    28     6     1    1
    29    28    21   ar
    30     8    10    1
@<TRIPOS>MOLECULE
*****
 28 30 0 0 0
SMALL
GASTEIGER

@<TRIPOS>ATOM
      1 N         138.8570  139.6997  159.8642 N.3     1  UNL1       -0.2682
      2 C         140.2500  139.2722  160.2205 C.3     1  UNL1        0.0897
      3 C         140.5070  138.5553  161.5127 C.3     1  UNL1        0.0899
      4 N         139.3711  138.2657  162.4487 N.3     1  UNL1       -0.2665
      5 C         137.9782  138.6932  162.0924 C.3     1  UNL1        0.0899
      6 C         137.7211  139.4102  160.8001 C.3     1  UNL1        0.0897
      7 C         138.5999  140.4167  158.5720 C.3     1  UNL1        0.1056
      8 O         137.4889  142.4924  157.4735 O.3     1  UNL1       -0.3793
      9 C         138.3067  141.8877  158.5760 C.3     1  UNL1        0.1700
     10 H         137.3940  143.4455  157.6267 H       1  UNL1        0.2106
     11 C         138.8313  142.7541  159.6825 C.3     1  UNL1        0.2358
     12 O         137.9193  143.1887  160.7913 O.3     1  UNL1       -0.4728
     13 C         138.3867  143.1251  162.2152 C.ar    1  UNL1        0.1388
     14 C         139.4465  142.1412  162.6135 C.ar    1  UNL1        0.0392
     15 C         139.9138  142.0777  164.0374 C.ar    1  UNL1        0.0327
     16 C         139.3214  142.9981  165.0630 C.ar    1  UNL1        0.1403
     17 F         139.7888  142.9346  166.4870 F       1  UNL1       -0.2042
     18 C         138.2617  143.9821  164.6647 C.ar    1  UNL1        0.0327
     19 C         137.7943  144.0456  163.2408 C.ar    1  UNL1        0.0392
     20 C         139.6282  137.5488  163.7409 C.3     1  UNL1        0.0992
     21 C         139.5996  138.3044  165.0364 C.ar    1  UNL1       -0.0052
     22 C         138.3307  138.3799  165.8327 C.ar    1  UNL1       -0.0020
     23 C         138.3021  139.1354  167.1282 C.ar    1  UNL1        0.0120
     24 C         139.5424  139.8155  167.6274 C.ar    1  UNL1        0.0682
     25 CL        139.5138  140.5710  168.9229 Cl      1  UNL1       -0.0814
     26 C         140.8113  139.7400  166.8311 C.ar    1  UNL1        0.0679
     27 CL        142.0516  140.4200  167.3303 Cl      1  UNL1       -0.0814
     28 C         140.8399  138.9844  165.5356 C.ar    1  UNL1        0.0093
@<TRIPOS>BOND
     1     9     8    1
     2     9    11    1
     3    11    12    1
     4    12    13    1
     5    13    14   ar
     6    14    15   ar
     7    15    16   ar
     8    16    17    1
     9    16    18   ar
    10    18    19   ar
    11     9     7    1
    12     7     1    1
    13     1     2    1
    14     2     3    1
    15     3     4    1
    16     4    20    1
    17    20    21    1
    18    21    22   ar
    19    22    23   ar
    20    23    24   ar
    21    24    25    1
    22    24    26   ar
    23    26    27    1
    24    26    28   ar
    25     4     5    1
    26     5     6    1
    27    19    13   ar
    28     6     1    1
    29    28    21   ar
    30     8    10    1
@<TRIPOS>MOLECULE
*****
 28 30 0 0 0
SMALL
GASTEIGER

@<TRIPOS>ATOM
      1 N         139.3182  142.2655  160.9786 N.3     1  UNL1       -0.2682
      2 C         140.6367  141.6138  161.2735 C.3     1  UNL1        0.0897
      3 C         141.3749  141.9516  162.5348 C.3     1  UNL1        0.0899
      4 N         140.7946  142.9411  163.5013 N.3     1  UNL1       -0.2665
      5 C         139.4762  143.5928  163.2065 C.3     1  UNL1        0.0899
      6 C         138.7379  143.2550  161.9451 C.3     1  UNL1        0.0897
      7 C         138.5801  141.9277  159.7173 C.3     1  UNL1        0.1056
      8 O         138.0634  139.9371  158.1297 O.3     1  UNL1       -0.3793
      9 C         138.0565  140.5384  159.5039 C.3     1  UNL1        0.1700
     10 H         137.6939  139.0410  158.1670 H       1  UNL1        0.2106
     11 C         137.5260  139.7503  160.6647 C.3     1  UNL1        0.2358
     12 O         138.4320  138.8215  161.4173 O.3     1  UNL1       -0.4728
     13 C         138.4809  138.8720  162.9157 C.ar    1  UNL1        0.1388
     14 C         138.8924  137.6576  163.6941 C.ar    1  UNL1        0.0392
     15 C         138.9412  137.7081  165.1924 C.ar    1  UNL1        0.0327
     16 C         138.5786  138.9731  165.9124 C.ar    1  UNL1        0.1403
     17 F         138.6274  139.0236  167.4108 F       1  UNL1       -0.2042
     18 C         138.1671  140.1875  165.1340 C.ar    1  UNL1        0.0327
     19 C         138.1183  140.1369  163.6357 C.ar    1  UNL1        0.0392
     20 C         141.5327  143.2789  164.7626 C.3     1  UNL1        0.0992
     21 C         141.4219  142.3817  165.9597 C.ar    1  UNL1       -0.0052
     22 C         140.4785  142.7296  167.0728 C.ar    1  UNL1       -0.0020
     23 C         140.3676  141.8325  168.2699 C.ar    1  UNL1        0.0120
     24 C         141.2002  140.5875  168.3538 C.ar    1  UNL1        0.0682
     25 CL        141.0893  139.6904  169.5508 Cl      1  UNL1       -0.0814
     26 C         142.1435  140.2397  167.2407 C.ar    1  UNL1        0.0679
     27 CL        142.9761  138.9948  167.3246 Cl      1  UNL1       -0.0814
     28 C         142.2544  141.1368  166.0436 C.ar    1  UNL1        0.0093
@<TRIPOS>BOND
     1     9     8    1
     2     9    11    1
     3    11    12    1
     4    12    13    1
     5    13    14   ar
     6    14    15   ar
     7    15    16   ar
     8    16    17    1
     9    16    18   ar
    10    18    19   ar
    11     9     7    1
    12     7     1    1
    13     1     2    1
    14     2     3    1
    15     3     4    1
    16     4    20    1
    17    20    21    1
    18    21    22   ar
    19    22    23   ar
    20    23    24   ar
    21    24    25    1
    22    24    26   ar
    23    26    27    1
    24    26    28   ar
    25     4     5    1
    26     5     6    1
    27    19    13   ar
    28     6     1    1
    29    28    21   ar
    30     8    10    1
@<TRIPOS>MOLECULE
*****
 28 30 0 0 0
SMALL
GASTEIGER

@<TRIPOS>ATOM
      1 N         140.8317  138.7309  162.6782 N.3     1  UNL1       -0.2682
      2 C         141.3054  140.1310  162.9340 C.3     1  UNL1        0.0897
      3 C         141.9473  140.4779  164.2446 C.3     1  UNL1        0.0899
      4 N         142.1155  139.4247  165.2994 N.3     1  UNL1       -0.2665
      5 C         141.6418  138.0247  165.0436 C.3     1  UNL1        0.0899
      6 C         140.9999  137.6778  163.7330 C.3     1  UNL1        0.0897
      7 C         140.1898  138.3840  161.3676 C.3     1  UNL1        0.1056
      8 O         137.8258  137.3377  161.6256 O.3     1  UNL1       -0.3793
      9 C         138.7013  138.4833  161.2120 C.3     1  UNL1        0.1700
     10 H         136.8973  137.5640  161.4597 H       1  UNL1        0.2106
     11 C         138.0881  139.7284  160.6428 C.3     1  UNL1        0.2358
     12 O         137.2378  140.6094  161.5092 O.3     1  UNL1       -0.4728
     13 C         137.8341  141.2796  162.7114 C.ar    1  UNL1        0.1388
     14 C         137.9642  140.5269  164.0024 C.ar    1  UNL1        0.0392
     15 C         138.5605  141.1972  165.2045 C.ar    1  UNL1        0.0327
     16 C         139.0268  142.6201  165.1157 C.ar    1  UNL1        0.1403
     17 F         139.6232  143.2903  166.3179 F       1  UNL1       -0.2042
     18 C         138.8967  143.3728  163.8247 C.ar    1  UNL1        0.0327
     19 C         138.3004  142.7025  162.6226 C.ar    1  UNL1        0.0392
     20 C         142.7573  139.7716  166.6099 C.3     1  UNL1        0.0992
     21 C         142.0145  140.6055  167.6115 C.ar    1  UNL1       -0.0052
     22 C         142.5346  141.9597  167.9931 C.ar    1  UNL1       -0.0020
     23 C         141.7918  142.7935  168.9945 C.ar    1  UNL1        0.0120
     24 C         140.5289  142.2731  169.6145 C.ar    1  UNL1        0.0682
     25 CL        139.7861  143.1069  170.6160 Cl      1  UNL1       -0.0814
     26 C         140.0088  140.9189  169.2329 C.ar    1  UNL1        0.0679
     27 CL        138.7459  140.3985  169.8527 Cl      1  UNL1       -0.0814
     28 C         140.7516  140.0851  168.2313 C.ar    1  UNL1        0.0093
@<TRIPOS>BOND
     1     9     8    1
     2     9    11    1
     3    11    12    1
     4    12    13    1
     5    13    14   ar
     6    14    15   ar
     7    15    16   ar
     8    16    17    1
     9    16    18   ar
    10    18    19   ar
    11     9     7    1
    12     7     1    1
    13     1     2    1
    14     2     3    1
    15     3     4    1
    16     4    20    1
    17    20    21    1
    18    21    22   ar
    19    22    23   ar
    20    23    24   ar
    21    24    25    1
    22    24    26   ar
    23    26    27    1
    24    26    28   ar
    25     4     5    1
    26     5     6    1
    27    19    13   ar
    28     6     1    1
    29    28    21   ar
    30     8    10    1
@<TRIPOS>MOLECULE
*****
 28 30 0 0 0
SMALL
GASTEIGER

@<TRIPOS>ATOM
      1 N         139.9944  142.5701  161.2219 N.3     1  UNL1       -0.2682
      2 C         138.7279  142.2342  161.9521 C.3     1  UNL1        0.0897
      3 C         138.7144  141.1209  162.9572 C.3     1  UNL1        0.0899
      4 N         139.9674  140.3435  163.2323 N.3     1  UNL1       -0.2665
      5 C         141.2339  140.6794  162.5022 C.3     1  UNL1        0.0899
      6 C         141.2474  141.7928  161.4970 C.3     1  UNL1        0.0897
      7 C         140.0079  143.6834  160.2168 C.3     1  UNL1        0.1056
      8 O         141.8159  145.5229  159.9044 O.3     1  UNL1       -0.3793
      9 C         140.5779  145.0207  160.5865 C.3     1  UNL1        0.1700
     10 H         142.0483  146.3958  160.2577 H       1  UNL1        0.2106
     11 C         139.9099  145.8559  161.6383 C.3     1  UNL1        0.2358
     12 O         140.6374  146.1858  162.9079 O.3     1  UNL1       -0.4728
     13 C         141.4161  145.1224  163.6242 C.ar    1  UNL1        0.1388
     14 C         140.7032  144.1229  164.4860 C.ar    1  UNL1        0.0392
     15 C         141.4819  143.0596  165.2022 C.ar    1  UNL1        0.0327
     16 C         142.9734  142.9958  165.0565 C.ar    1  UNL1        0.1403
     17 F         143.7521  141.9324  165.7728 F       1  UNL1       -0.2042
     18 C         143.6863  143.9952  164.1947 C.ar    1  UNL1        0.0327
     19 C         142.9076  145.0586  163.4785 C.ar    1  UNL1        0.0392
     20 C         139.9539  139.2302  164.2374 C.3     1  UNL1        0.0992
     21 C         140.6301  139.4095  165.5644 C.ar    1  UNL1       -0.0052
     22 C         142.0660  139.0104  165.7344 C.ar    1  UNL1       -0.0020
     23 C         142.7422  139.1897  167.0612 C.ar    1  UNL1        0.0120
     24 C         141.9825  139.7681  168.2182 C.ar    1  UNL1        0.0682
     25 CL        142.6587  139.9473  169.5450 Cl      1  UNL1       -0.0814
     26 C         140.5466  140.1672  168.0481 C.ar    1  UNL1        0.0679
     27 CL        139.7869  140.7455  169.2050 Cl      1  UNL1       -0.0814
     28 C         139.8704  139.9879  166.7212 C.ar    1  UNL1        0.0093
@<TRIPOS>BOND
     1     9     8    1
     2     9    11    1
     3    11    12    1
     4    12    13    1
     5    13    14   ar
     6    14    15   ar
     7    15    16   ar
     8    16    17    1
     9    16    18   ar
    10    18    19   ar
    11     9     7    1
    12     7     1    1
    13     1     2    1
    14     2     3    1
    15     3     4    1
    16     4    20    1
    17    20    21    1
    18    21    22   ar
    19    22    23   ar
    20    23    24   ar
    21    24    25    1
    22    24    26   ar
    23    26    27    1
    24    26    28   ar
    25     4     5    1
    26     5     6    1
    27    19    13   ar
    28     6     1    1
    29    28    21   ar
    30     8    10    1
@<TRIPOS>MOLECULE
*****
 28 30 0 0 0
SMALL
GASTEIGER

@<TRIPOS>ATOM
      1 N         141.1398  141.9512  162.1620 N.3     1  UNL1       -0.2682
      2 C         141.7720  140.7627  162.8237 C.3     1  UNL1        0.0897
      3 C         142.3457  140.8896  164.2038 C.3     1  UNL1        0.0899
      4 N         142.2871  142.2051  164.9223 N.3     1  UNL1       -0.2665
      5 C         141.6549  143.3935  164.2606 C.3     1  UNL1        0.0899
      6 C         141.0812  143.2666  162.8804 C.3     1  UNL1        0.0897
      7 C         140.5661  141.8242  160.7818 C.3     1  UNL1        0.1056
      8 O         138.4621  143.3204  160.4916 O.3     1  UNL1       -0.3793
      9 C         139.0875  141.9592  160.5689 C.3     1  UNL1        0.1700
     10 H         137.5064  143.2297  160.3522 H       1  UNL1        0.2106
     11 C         138.2342  140.7329  160.4333 C.3     1  UNL1        0.2358
     12 O         137.3784  140.2842  161.5805 O.3     1  UNL1       -0.4728
     13 C         138.0005  140.0080  162.9173 C.ar    1  UNL1        0.1388
     14 C         138.0486  141.0859  163.9592 C.ar    1  UNL1        0.0392
     15 C         138.6706  140.8096  165.2959 C.ar    1  UNL1        0.0327
     16 C         139.2446  139.4555  165.5906 C.ar    1  UNL1        0.1403
     17 F         139.8667  139.1793  166.9273 F       1  UNL1       -0.2042
     18 C         139.1965  138.3776  164.5486 C.ar    1  UNL1        0.0327
     19 C         138.5745  138.6538  163.2120 C.ar    1  UNL1        0.0392
     20 C         142.8607  142.3321  166.3024 C.3     1  UNL1        0.0992
     21 C         142.1466  141.7195  167.4707 C.ar    1  UNL1       -0.0052
     22 C         140.8712  142.3284  167.9732 C.ar    1  UNL1       -0.0020
     23 C         140.1571  141.7159  169.1415 C.ar    1  UNL1        0.0120
     24 C         140.7184  140.4945  169.8073 C.ar    1  UNL1        0.0682
     25 CL        140.0044  139.8821  170.9756 Cl      1  UNL1       -0.0814
     26 C         141.9939  139.8857  169.3048 C.ar    1  UNL1        0.0679
     27 CL        142.5553  138.6644  169.9706 Cl      1  UNL1       -0.0814
     28 C         142.7080  140.4982  168.1365 C.ar    1  UNL1        0.0093
@<TRIPOS>BOND
     1     9     8    1
     2     9    11    1
     3    11    12    1
     4    12    13    1
     5    13    14   ar
     6    14    15   ar
     7    15    16   ar
     8    16    17    1
     9    16    18   ar
    10    18    19   ar
    11     9     7    1
    12     7     1    1
    13     1     2    1
    14     2     3    1
    15     3     4    1
    16     4    20    1
    17    20    21    1
    18    21    22   ar
    19    22    23   ar
    20    23    24   ar
    21    24    25    1
    22    24    26   ar
    23    26    27    1
    24    26    28   ar
    25     4     5    1
    26     5     6    1
    27    19    13   ar
    28     6     1    1
    29    28    21   ar
    30     8    10    1
