@<TRIPOS>MOLECULE
*****
 31 34 0 0 0
SMALL
GASTEIGER

@<TRIPOS>ATOM
      1 C         141.9671  141.4440  164.7303 C.ar    1  UNL1        0.1430
      2 C         142.0804  142.9022  165.0631 C.ar    1  UNL1        0.0680
      3 C         141.9613  143.9306  163.9778 C.ar    1  UNL1        0.1641
      4 F         142.0746  145.3889  164.3106 F       1  UNL1       -0.2026
      5 C         141.7289  143.5009  162.5596 C.ar    1  UNL1        0.1799
      6 C         141.6156  142.0427  162.2267 C.ar    1  UNL1        0.1641
      7 F         141.3833  141.6130  160.8085 F       1  UNL1       -0.2026
      8 C         141.7347  141.0143  163.3121 C.ar    1  UNL1        0.0680
      9 S         141.6098  144.5295  161.4742 S.O2    1  UNL1        0.0790
     10 O         140.1895  144.7920  161.8787 O.2     1  UNL1       -0.1498
     11 O         143.0301  144.2670  161.0696 O.2     1  UNL1       -0.1498
     12 N         141.4907  145.5579  160.3888 N.pl3   1  UNL1       -0.1987
     13 H         141.4679  146.5151  160.6181 H       1  UNL1        0.1753
     14 C         141.4065  145.1281  158.9542 C.ar    1  UNL1        0.1503
     15 C         140.5197  143.9824  158.5653 C.ar    1  UNL1        0.0563
     16 C         140.4355  143.5526  157.1307 C.ar    1  UNL1        0.1036
     17 N         141.2381  144.2684  156.0850 N.ar    1  UNL1       -0.2223
     18 C         142.1248  145.4140  156.4739 C.ar    1  UNL1        0.2001
     19 N         142.2090  145.8439  157.9085 N.ar    1  UNL1       -0.2077
     20 O         142.0862  140.4155  165.8157 O.3     1  UNL1       -0.4786
     21 C         139.6189  139.5904  166.4292 C.3     1  UNL1        0.0799
     22 C         138.7898  139.5628  167.6789 C.3     1  UNL1        0.0096
     23 C         139.6074  140.1508  168.7906 C.3     1  UNL1        0.0042
     24 C         140.9417  140.5418  168.2280 C.3     1  UNL1        0.0439
     25 C         140.9489  140.1954  166.7685 C.3     1  UNL1        0.1713
     26 C         138.0370  141.3307  164.1667 C.3     1  UNL1        0.1533
     27 N         138.4657  139.8990  164.0375 N.ar    1  UNL1       -0.2527
     28 N         138.2426  139.0160  162.8457 N.ar    1  UNL1       -0.1679
     29 C         138.8319  137.6703  163.1490 C.ar    1  UNL1        0.1213
     30 C         139.4192  137.7217  164.5283 C.ar    1  UNL1        0.0369
     31 C         139.1929  139.0991  165.0774 C.ar    1  UNL1        0.0603
@<TRIPOS>BOND
     1    26    27    1
     2    27    28   ar
     3    28    29   ar
     4    29    30   ar
     5    30    31   ar
     6    21    31    1
     7    21    22    1
     8    22    23    1
     9    23    24    1
    10    24    25    1
    11    25    20    1
    12    20     1    1
    13     1     2   ar
    14     2     3   ar
    15     3     4    1
    16     3     5   ar
    17     5     9    1
    18     9    10    2
    19     9    11    2
    20     9    12    1
    21    12    14    1
    22    14    15   ar
    23    15    16   ar
    24    16    17   ar
    25    17    18   ar
    26    18    19   ar
    27     5     6   ar
    28     6     7    1
    29     6     8   ar
    30    31    27   ar
    31    25    21    1
    32     8     1   ar
    33    19    14   ar
    34    12    13    1
@<TRIPOS>MOLECULE
*****
 31 34 0 0 0
SMALL
GASTEIGER

@<TRIPOS>ATOM
      1 C         141.9113  141.6388  165.0559 C.ar    1  UNL1        0.1430
      2 C         141.1212  141.3076  163.8246 C.ar    1  UNL1        0.0680
      3 C         140.9984  142.3139  162.7191 C.ar    1  UNL1        0.1641
      4 F         140.2083  141.9828  161.4878 F       1  UNL1       -0.2026
      5 C         141.6656  143.6515  162.8450 C.ar    1  UNL1        0.1799
      6 C         142.4556  143.9827  164.0762 C.ar    1  UNL1        0.1641
      7 F         143.1228  145.3202  164.2021 F       1  UNL1       -0.2026
      8 C         142.5785  142.9763  165.1817 C.ar    1  UNL1        0.0680
      9 S         141.5427  144.6579  161.7394 S.O2    1  UNL1        0.0790
     10 O         140.1920  145.0586  162.2542 O.2     1  UNL1       -0.1498
     11 O         142.8934  144.2572  161.2246 O.2     1  UNL1       -0.1498
     12 N         141.4199  145.6642  160.6339 N.pl3   1  UNL1       -0.1987
     13 H         141.4198  146.6264  160.8419 H       1  UNL1        0.1753
     14 C         141.2972  145.2044  159.2114 C.ar    1  UNL1        0.1503
     15 C         140.3049  144.1390  158.8505 C.ar    1  UNL1        0.0563
     16 C         140.1822  143.6792  157.4279 C.ar    1  UNL1        0.1036
     17 N         141.0519  144.2849  156.3663 N.ar    1  UNL1       -0.2223
     18 C         142.0441  145.3502  156.7273 C.ar    1  UNL1        0.2001
     19 N         142.1668  145.8100  158.1498 N.ar    1  UNL1       -0.2077
     20 O         142.0341  140.6324  166.1614 O.3     1  UNL1       -0.4786
     21 C         140.7947  140.9166  168.5126 C.3     1  UNL1        0.0799
     22 C         139.4839  140.4616  169.0824 C.3     1  UNL1        0.0096
     23 C         138.7676  139.6736  168.0259 C.3     1  UNL1        0.0042
     24 C         139.6358  139.6418  166.8031 C.3     1  UNL1        0.0439
     25 C         140.8886  140.4099  167.1039 C.3     1  UNL1        0.1713
     26 C         140.3276  143.8546  169.8541 C.3     1  UNL1        0.1533
     27 N         141.6152  143.0850  169.8428 N.ar    1  UNL1       -0.2527
     28 N         142.9141  143.5309  170.4462 N.ar    1  UNL1       -0.1679
     29 C         143.9316  142.4560  170.2024 C.ar    1  UNL1        0.1213
     30 C         143.2614  141.3458  169.4484 C.ar    1  UNL1        0.0369
     31 C         141.8299  141.7346  169.2262 C.ar    1  UNL1        0.0603
@<TRIPOS>BOND
     1    26    27    1
     2    27    28   ar
     3    28    29   ar
     4    29    30   ar
     5    30    31   ar
     6    21    31    1
     7    21    22    1
     8    22    23    1
     9    23    24    1
    10    24    25    1
    11    25    20    1
    12    20     1    1
    13     1     2   ar
    14     2     3   ar
    15     3     4    1
    16     3     5   ar
    17     5     9    1
    18     9    10    2
    19     9    11    2
    20     9    12    1
    21    12    14    1
    22    14    15   ar
    23    15    16   ar
    24    16    17   ar
    25    17    18   ar
    26    18    19   ar
    27     5     6   ar
    28     6     7    1
    29     6     8   ar
    30    31    27   ar
    31    25    21    1
    32     8     1   ar
    33    19    14   ar
    34    12    13    1
@<TRIPOS>MOLECULE
*****
 31 34 0 0 0
SMALL
GASTEIGER

@<TRIPOS>ATOM
      1 C         140.1217  141.6560  165.1270 C.ar    1  UNL1        0.1430
      2 C         138.8835  142.4799  164.9322 C.ar    1  UNL1        0.0680
      3 C         138.8081  143.4651  163.8037 C.ar    1  UNL1        0.1641
      4 F         137.5698  144.2891  163.6089 F       1  UNL1       -0.2026
      5 C         139.9709  143.6265  162.8700 C.ar    1  UNL1        0.1799
      6 C         141.2091  142.8027  163.0648 C.ar    1  UNL1        0.1641
      7 F         142.3719  142.9641  162.1311 F       1  UNL1       -0.2026
      8 C         141.2845  141.8174  164.1933 C.ar    1  UNL1        0.0680
      9 S         139.8954  144.6119  161.7415 S.O2    1  UNL1        0.0790
     10 O         139.0459  143.6531  160.9611 O.2     1  UNL1       -0.1498
     11 O         140.7449  145.5706  162.5219 O.2     1  UNL1       -0.1498
     12 N         139.8200  145.5972  160.6131 N.pl3   1  UNL1       -0.1987
     13 H         139.2588  146.4015  160.6986 H       1  UNL1        0.1753
     14 C         140.5997  145.3571  159.3543 C.ar    1  UNL1        0.1503
     15 C         140.1075  145.9110  158.0501 C.ar    1  UNL1        0.0563
     16 C         140.8872  145.6708  156.7913 C.ar    1  UNL1        0.1036
     17 N         142.1590  144.8768  156.8368 N.ar    1  UNL1       -0.2223
     18 C         142.6512  144.3230  158.1411 C.ar    1  UNL1        0.2001
     19 N         141.8715  144.5631  159.3998 N.ar    1  UNL1       -0.2077
     20 O         140.1971  140.6706  166.2555 O.3     1  UNL1       -0.4786
     21 C         139.4344  138.3061  165.2697 C.3     1  UNL1        0.0799
     22 C         138.3787  137.3005  165.6224 C.3     1  UNL1        0.0096
     23 C         137.6242  137.8182  166.8111 C.3     1  UNL1        0.0042
     24 C         138.2135  139.1436  167.1929 C.3     1  UNL1        0.0439
     25 C         139.3323  139.4452  166.2402 C.3     1  UNL1        0.1713
     26 C         138.7035  138.0760  162.0975 C.3     1  UNL1        0.1533
     27 N         140.0833  138.0867  162.6859 N.ar    1  UNL1       -0.2527
     28 N         141.3693  137.9935  161.9195 N.ar    1  UNL1       -0.1679
     29 C         142.5001  138.0416  162.9039 C.ar    1  UNL1        0.1213
     30 C         141.9128  138.1646  164.2787 C.ar    1  UNL1        0.0369
     31 C         140.4192  138.1924  164.1440 C.ar    1  UNL1        0.0603
@<TRIPOS>BOND
     1    26    27    1
     2    27    28   ar
     3    28    29   ar
     4    29    30   ar
     5    30    31   ar
     6    21    31    1
     7    21    22    1
     8    22    23    1
     9    23    24    1
    10    24    25    1
    11    25    20    1
    12    20     1    1
    13     1     2   ar
    14     2     3   ar
    15     3     4    1
    16     3     5   ar
    17     5     9    1
    18     9    10    2
    19     9    11    2
    20     9    12    1
    21    12    14    1
    22    14    15   ar
    23    15    16   ar
    24    16    17   ar
    25    17    18   ar
    26    18    19   ar
    27     5     6   ar
    28     6     7    1
    29     6     8   ar
    30    31    27   ar
    31    25    21    1
    32     8     1   ar
    33    19    14   ar
    34    12    13    1
@<TRIPOS>MOLECULE
*****
 31 34 0 0 0
SMALL
GASTEIGER

@<TRIPOS>ATOM
      1 C         140.1776  141.7027  164.9783 C.ar    1  UNL1        0.1430
      2 C         141.3155  141.8399  164.0107 C.ar    1  UNL1        0.0680
      3 C         141.2230  142.8192  162.8783 C.ar    1  UNL1        0.1641
      4 F         142.3609  142.9565  161.9106 F       1  UNL1       -0.2026
      5 C         139.9925  143.6611  162.7134 C.ar    1  UNL1        0.1799
      6 C         138.8546  143.5238  163.6810 C.ar    1  UNL1        0.1641
      7 F         137.6242  144.3658  163.5162 F       1  UNL1       -0.2026
      8 C         138.9472  142.5446  164.8135 C.ar    1  UNL1        0.0680
      9 S         139.9000  144.6404  161.5809 S.O2    1  UNL1        0.0790
     10 O         139.1148  143.6426  160.7823 O.2     1  UNL1       -0.1498
     11 O         140.6853  145.6381  162.3795 O.2     1  UNL1       -0.1498
     12 N         139.8075  145.6196  160.4484 N.pl3   1  UNL1       -0.1987
     13 H         139.2306  146.4132  160.5298 H       1  UNL1        0.1753
     14 C         140.5941  145.3898  159.1920 C.ar    1  UNL1        0.1503
     15 C         140.0834  145.9112  157.8815 C.ar    1  UNL1        0.0563
     16 C         140.8700  145.6814  156.6251 C.ar    1  UNL1        0.1036
     17 N         142.1672  144.9302  156.6793 N.ar    1  UNL1       -0.2223
     18 C         142.6778  144.4088  157.9897 C.ar    1  UNL1        0.2001
     19 N         141.8913  144.6386  159.2461 N.ar    1  UNL1       -0.2077
     20 O         140.2702  140.7234  166.1109 O.3     1  UNL1       -0.4786
     21 C         139.5349  138.3304  165.1740 C.3     1  UNL1        0.0799
     22 C         138.4764  137.3302  165.5333 C.3     1  UNL1        0.0096
     23 C         137.6975  137.8760  166.6932 C.3     1  UNL1        0.0042
     24 C         138.2747  139.2135  167.0508 C.3     1  UNL1        0.0439
     25 C         139.4102  139.4944  166.1118 C.3     1  UNL1        0.1713
     26 C         142.7794  138.3417  165.5243 C.3     1  UNL1        0.1533
     27 N         142.0327  138.1963  164.2315 N.ar    1  UNL1       -0.2527
     28 N         142.6462  138.0305  162.8728 N.ar    1  UNL1       -0.1679
     29 C         141.5341  137.9228  161.8720 C.ar    1  UNL1        0.1213
     30 C         140.2332  138.0221  162.6123 C.ar    1  UNL1        0.0369
     31 C         140.5414  138.1911  164.0705 C.ar    1  UNL1        0.0603
@<TRIPOS>BOND
     1    26    27    1
     2    27    28   ar
     3    28    29   ar
     4    29    30   ar
     5    30    31   ar
     6    21    31    1
     7    21    22    1
     8    22    23    1
     9    23    24    1
    10    24    25    1
    11    25    20    1
    12    20     1    1
    13     1     2   ar
    14     2     3   ar
    15     3     4    1
    16     3     5   ar
    17     5     9    1
    18     9    10    2
    19     9    11    2
    20     9    12    1
    21    12    14    1
    22    14    15   ar
    23    15    16   ar
    24    16    17   ar
    25    17    18   ar
    26    18    19   ar
    27     5     6   ar
    28     6     7    1
    29     6     8   ar
    30    31    27   ar
    31    25    21    1
    32     8     1   ar
    33    19    14   ar
    34    12    13    1
@<TRIPOS>MOLECULE
*****
 31 34 0 0 0
SMALL
GASTEIGER

@<TRIPOS>ATOM
      1 C         142.2092  141.2960  164.6564 C.ar    1  UNL1        0.1430
      2 C         141.8016  140.9281  163.2605 C.ar    1  UNL1        0.0680
      3 C         141.6382  141.9968  162.2207 C.ar    1  UNL1        0.1641
      4 F         141.2305  141.6289  160.8247 F       1  UNL1       -0.2026
      5 C         141.8823  143.4333  162.5767 C.ar    1  UNL1        0.1799
      6 C         142.2899  143.8012  163.9726 C.ar    1  UNL1        0.1641
      7 F         142.5340  145.2377  164.3286 F       1  UNL1       -0.2026
      8 C         142.4533  142.7326  165.0124 C.ar    1  UNL1        0.0680
      9 S         141.7188  144.5020  161.5368 S.O2    1  UNL1        0.0790
     10 O         140.3516  144.8120  162.0703 O.2     1  UNL1       -0.1498
     11 O         143.0860  144.1919  161.0033 O.2     1  UNL1       -0.1498
     12 N         141.5554  145.5705  160.4970 N.pl3   1  UNL1       -0.1987
     13 H         141.5728  146.5193  160.7592 H       1  UNL1        0.1753
     14 C         141.3653  145.1936  159.0576 C.ar    1  UNL1        0.1503
     15 C         140.3165  144.1909  158.6771 C.ar    1  UNL1        0.0563
     16 C         140.1264  143.8139  157.2377 C.ar    1  UNL1        0.1036
     17 N         140.9851  144.4397  156.1789 N.ar    1  UNL1       -0.2223
     18 C         142.0338  145.4424  156.5594 C.ar    1  UNL1        0.2001
     19 N         142.2239  145.8193  157.9988 N.ar    1  UNL1       -0.2077
     20 O         142.3727  140.2274  165.6963 O.3     1  UNL1       -0.4786
     21 C         139.9273  140.2093  166.7753 C.3     1  UNL1        0.0799
     22 C         139.3840  140.1086  168.1698 C.3     1  UNL1        0.0096
     23 C         140.5452  139.9953  169.1127 C.3     1  UNL1        0.0042
     24 C         141.8061  140.0260  168.3008 C.3     1  UNL1        0.0439
     25 C         141.4242  140.1583  166.8562 C.3     1  UNL1        0.1713
     26 C         139.1046  137.7745  164.7641 C.3     1  UNL1        0.1533
     27 N         138.7379  139.2193  164.5958 N.ar    1  UNL1       -0.2527
     28 N         137.9286  139.7986  163.4735 N.ar    1  UNL1       -0.1679
     29 C         137.8066  141.2757  163.7044 C.ar    1  UNL1        0.1213
     30 C         138.5405  141.6093  164.9694 C.ar    1  UNL1        0.0369
     31 C         139.1160  140.3384  165.5203 C.ar    1  UNL1        0.0603
@<TRIPOS>BOND
     1    26    27    1
     2    27    28   ar
     3    28    29   ar
     4    29    30   ar
     5    30    31   ar
     6    21    31    1
     7    21    22    1
     8    22    23    1
     9    23    24    1
    10    24    25    1
    11    25    20    1
    12    20     1    1
    13     1     2   ar
    14     2     3   ar
    15     3     4    1
    16     3     5   ar
    17     5     9    1
    18     9    10    2
    19     9    11    2
    20     9    12    1
    21    12    14    1
    22    14    15   ar
    23    15    16   ar
    24    16    17   ar
    25    17    18   ar
    26    18    19   ar
    27     5     6   ar
    28     6     7    1
    29     6     8   ar
    30    31    27   ar
    31    25    21    1
    32     8     1   ar
    33    19    14   ar
    34    12    13    1
@<TRIPOS>MOLECULE
*****
 31 34 0 0 0
SMALL
GASTEIGER

@<TRIPOS>ATOM
      1 C         140.2507  142.1259  164.7638 C.ar    1  UNL1        0.1430
      2 C         140.8535  143.4860  164.9550 C.ar    1  UNL1        0.0680
      3 C         141.1493  144.3493  163.7645 C.ar    1  UNL1        0.1641
      4 F         141.7522  145.7095  163.9556 F       1  UNL1       -0.2026
      5 C         140.8423  143.8524  162.3829 C.ar    1  UNL1        0.1799
      6 C         140.2395  142.4923  162.1917 C.ar    1  UNL1        0.1641
      7 F         139.9325  141.9954  160.8101 F       1  UNL1       -0.2026
      8 C         139.9437  141.6290  163.3822 C.ar    1  UNL1        0.0680
      9 S         141.1382  144.7157  161.1924 S.O2    1  UNL1        0.0790
     10 O         139.6867  145.0819  161.0971 O.2     1  UNL1       -0.1498
     11 O         142.5897  144.3496  161.2877 O.2     1  UNL1       -0.1498
     12 N         141.4341  145.5790  160.0020 N.pl3   1  UNL1       -0.1987
     13 H         141.9419  146.4149  160.1142 H       1  UNL1        0.1753
     14 C         140.9562  145.1688  158.6406 C.ar    1  UNL1        0.1503
     15 C         141.1460  143.7560  158.1733 C.ar    1  UNL1        0.0563
     16 C         140.6681  143.3458  156.8120 C.ar    1  UNL1        0.1036
     17 N         140.0004  144.3482  155.9179 N.ar    1  UNL1       -0.2223
     18 C         139.8105  145.7608  156.3852 C.ar    1  UNL1        0.2001
     19 N         140.2884  146.1711  157.7466 N.ar    1  UNL1       -0.2077
     20 O         139.9548  141.2625  165.9543 O.3     1  UNL1       -0.4786
     21 C         141.5194  140.7280  168.0546 C.3     1  UNL1        0.0799
     22 C         142.6522  139.7812  168.3196 C.3     1  UNL1        0.0096
     23 C         142.8989  138.9916  167.0683 C.3     1  UNL1        0.0042
     24 C         141.9184  139.4504  166.0299 C.3     1  UNL1        0.0439
     25 C         141.0658  140.5236  166.6395 C.3     1  UNL1        0.1713
     26 C         140.1282  139.9898  170.9129 C.3     1  UNL1        0.1533
     27 N         140.3021  141.3680  170.3467 N.ar    1  UNL1       -0.2527
     28 N         139.8671  142.6488  170.9949 N.ar    1  UNL1       -0.1679
     29 C         140.2376  143.7797  170.0818 C.ar    1  UNL1        0.1213
     30 C         140.9017  143.1977  168.8692 C.ar    1  UNL1        0.0369
     31 C         140.9415  141.7072  169.0329 C.ar    1  UNL1        0.0603
@<TRIPOS>BOND
     1    26    27    1
     2    27    28   ar
     3    28    29   ar
     4    29    30   ar
     5    30    31   ar
     6    21    31    1
     7    21    22    1
     8    22    23    1
     9    23    24    1
    10    24    25    1
    11    25    20    1
    12    20     1    1
    13     1     2   ar
    14     2     3   ar
    15     3     4    1
    16     3     5   ar
    17     5     9    1
    18     9    10    2
    19     9    11    2
    20     9    12    1
    21    12    14    1
    22    14    15   ar
    23    15    16   ar
    24    16    17   ar
    25    17    18   ar
    26    18    19   ar
    27     5     6   ar
    28     6     7    1
    29     6     8   ar
    30    31    27   ar
    31    25    21    1
    32     8     1   ar
    33    19    14   ar
    34    12    13    1
@<TRIPOS>MOLECULE
*****
 31 34 0 0 0
SMALL
GASTEIGER

@<TRIPOS>ATOM
      1 C         140.3271  141.8706  164.5089 C.ar    1  UNL1        0.1430
      2 C         140.9797  143.1868  164.8114 C.ar    1  UNL1        0.0680
      3 C         141.2229  144.1743  163.7088 C.ar    1  UNL1        0.1641
      4 F         141.8755  145.4906  164.0113 F       1  UNL1       -0.2026
      5 C         140.8135  143.8455  162.3037 C.ar    1  UNL1        0.1799
      6 C         140.1609  142.5292  162.0012 C.ar    1  UNL1        0.1641
      7 F         139.7515  142.2004  160.5961 F       1  UNL1       -0.2026
      8 C         139.9177  141.5418  163.1038 C.ar    1  UNL1        0.0680
      9 S         141.0568  144.8330  161.2011 S.O2    1  UNL1        0.0790
     10 O         139.6492  145.3328  161.3381 O.2     1  UNL1       -0.1498
     11 O         142.4644  144.3332  161.0641 O.2     1  UNL1       -0.1498
     12 N         141.3001  145.8204  160.0986 N.pl3   1  UNL1       -0.1987
     13 H         141.4943  146.7612  160.3143 H       1  UNL1        0.1753
     14 C         141.2475  145.3746  158.6673 C.ar    1  UNL1        0.1503
     15 C         140.1344  144.4845  158.1994 C.ar    1  UNL1        0.0563
     16 C         140.0818  144.0387  156.7682 C.ar    1  UNL1        0.1036
     17 N         141.1424  144.4829  155.8048 N.ar    1  UNL1       -0.2223
     18 C         142.2554  145.3730  156.2727 C.ar    1  UNL1        0.2001
     19 N         142.3079  145.8188  157.7040 N.ar    1  UNL1       -0.2077
     20 O         140.0838  140.8830  165.6115 O.3     1  UNL1       -0.4786
     21 C         141.9256  138.9547  165.4276 C.3     1  UNL1        0.0799
     22 C         142.9915  138.4159  166.3351 C.3     1  UNL1        0.0096
     23 C         142.9443  139.1924  167.6177 C.3     1  UNL1        0.0042
     24 C         141.8494  140.2112  167.5027 C.3     1  UNL1        0.0439
     25 C         141.2198  140.0642  166.1491 C.3     1  UNL1        0.1713
     26 C         139.0824  137.7140  164.4142 C.3     1  UNL1        0.1533
     27 N         140.3126  137.8989  163.5759 N.ar    1  UNL1       -0.2527
     28 N         140.4519  137.5459  162.1247 N.ar    1  UNL1       -0.1679
     29 C         141.8448  137.8980  161.6936 C.ar    1  UNL1        0.1213
     30 C         142.5664  138.4686  162.8785 C.ar    1  UNL1        0.0369
     31 C         141.6194  138.4691  164.0418 C.ar    1  UNL1        0.0603
@<TRIPOS>BOND
     1    26    27    1
     2    27    28   ar
     3    28    29   ar
     4    29    30   ar
     5    30    31   ar
     6    21    31    1
     7    21    22    1
     8    22    23    1
     9    23    24    1
    10    24    25    1
    11    25    20    1
    12    20     1    1
    13     1     2   ar
    14     2     3   ar
    15     3     4    1
    16     3     5   ar
    17     5     9    1
    18     9    10    2
    19     9    11    2
    20     9    12    1
    21    12    14    1
    22    14    15   ar
    23    15    16   ar
    24    16    17   ar
    25    17    18   ar
    26    18    19   ar
    27     5     6   ar
    28     6     7    1
    29     6     8   ar
    30    31    27   ar
    31    25    21    1
    32     8     1   ar
    33    19    14   ar
    34    12    13    1
@<TRIPOS>MOLECULE
*****
 31 34 0 0 0
SMALL
GASTEIGER

@<TRIPOS>ATOM
      1 C         140.4535  142.1948  164.5089 C.ar    1  UNL1        0.1430
      2 C         141.0764  143.5489  164.6768 C.ar    1  UNL1        0.0680
      3 C         141.3215  144.4156  163.4773 C.ar    1  UNL1        0.1641
      4 F         141.9444  145.7698  163.6451 F       1  UNL1       -0.2026
      5 C         140.9435  143.9281  162.1100 C.ar    1  UNL1        0.1799
      6 C         140.3206  142.5740  161.9421 C.ar    1  UNL1        0.1641
      7 F         139.9426  142.0866  160.5748 F       1  UNL1       -0.2026
      8 C         140.0756  141.7073  163.1416 C.ar    1  UNL1        0.0680
      9 S         141.1886  144.7949  160.9104 S.O2    1  UNL1        0.0790
     10 O         142.6282  144.3739  160.9003 O.2     1  UNL1       -0.1498
     11 O         139.7489  145.2159  160.9206 O.2     1  UNL1       -0.1498
     12 N         141.4336  145.6616  159.7110 N.pl3   1  UNL1       -0.1987
     13 H         141.9771  146.4780  159.7964 H       1  UNL1        0.1753
     14 C         140.8505  145.2844  158.3814 C.ar    1  UNL1        0.1503
     15 C         140.9666  143.8738  157.8845 C.ar    1  UNL1        0.0563
     16 C         140.3836  143.4967  156.5549 C.ar    1  UNL1        0.1036
     17 N         139.6843  144.5301  155.7223 N.ar    1  UNL1       -0.2223
     18 C         139.5682  145.9406  156.2192 C.ar    1  UNL1        0.2001
     19 N         140.1513  146.3178  157.5488 N.ar    1  UNL1       -0.2077
     20 O         140.2084  141.3280  165.7084 O.3     1  UNL1       -0.4786
     21 C         140.7051  138.7955  165.0125 C.3     1  UNL1        0.0799
     22 C         139.9094  137.5241  164.9976 C.3     1  UNL1        0.0096
     23 C         138.5318  137.8334  165.5042 C.3     1  UNL1        0.0042
     24 C         138.4762  139.2961  165.8321 C.3     1  UNL1        0.0439
     25 C         139.8194  139.8907  165.5282 C.3     1  UNL1        0.1713
     26 C         141.8273  138.5920  161.9548 C.3     1  UNL1        0.1533
     27 N         142.6513  138.8519  163.1810 N.ar    1  UNL1       -0.2527
     28 N         144.1358  139.0639  163.2170 N.ar    1  UNL1       -0.1679
     29 C         144.5375  139.2884  164.6447 C.ar    1  UNL1        0.1213
     30 C         143.3012  139.2152  165.4910 C.ar    1  UNL1        0.0369
     31 C         142.1355  138.9454  164.5864 C.ar    1  UNL1        0.0603
@<TRIPOS>BOND
     1    26    27    1
     2    27    28   ar
     3    28    29   ar
     4    29    30   ar
     5    30    31   ar
     6    21    31    1
     7    21    22    1
     8    22    23    1
     9    23    24    1
    10    24    25    1
    11    25    20    1
    12    20     1    1
    13     1     2   ar
    14     2     3   ar
    15     3     4    1
    16     3     5   ar
    17     5     9    1
    18     9    10    2
    19     9    11    2
    20     9    12    1
    21    12    14    1
    22    14    15   ar
    23    15    16   ar
    24    16    17   ar
    25    17    18   ar
    26    18    19   ar
    27     5     6   ar
    28     6     7    1
    29     6     8   ar
    30    31    27   ar
    31    25    21    1
    32     8     1   ar
    33    19    14   ar
    34    12    13    1
@<TRIPOS>MOLECULE
*****
 31 34 0 0 0
SMALL
GASTEIGER

@<TRIPOS>ATOM
      1 C         139.3350  141.2767  165.8667 C.ar    1  UNL1        0.1430
      2 C         139.8862  142.5503  165.2976 C.ar    1  UNL1        0.0680
      3 C         139.6465  142.8938  163.8573 C.ar    1  UNL1        0.1641
      4 F         140.1977  144.1675  163.2882 F       1  UNL1       -0.2026
      5 C         138.8556  141.9635  162.9861 C.ar    1  UNL1        0.1799
      6 C         138.3044  140.6898  163.5551 C.ar    1  UNL1        0.1641
      7 F         137.5134  139.7596  162.6839 F       1  UNL1       -0.2026
      8 C         138.5441  140.3464  164.9954 C.ar    1  UNL1        0.0680
      9 S         138.6158  142.3070  161.5457 S.O2    1  UNL1        0.0790
     10 O         139.7221  141.3788  161.1401 O.2     1  UNL1       -0.1498
     11 O         137.5096  143.2353  161.9512 O.2     1  UNL1       -0.1498
     12 N         138.3761  142.6505  160.1054 N.pl3   1  UNL1       -0.1987
     13 H         137.5551  142.3445  159.6564 H       1  UNL1        0.1753
     14 C         139.3872  143.4603  159.3491 C.ar    1  UNL1        0.1503
     15 C         139.8297  143.0225  157.9843 C.ar    1  UNL1        0.0563
     16 C         140.8408  143.8323  157.2281 C.ar    1  UNL1        0.1036
     17 N         141.4094  145.0799  157.8366 N.ar    1  UNL1       -0.2223
     18 C         140.9669  145.5177  159.2013 C.ar    1  UNL1        0.2001
     19 N         139.9558  144.7079  159.9576 N.ar    1  UNL1       -0.2077
     20 O         139.5748  140.9332  167.3071 O.3     1  UNL1       -0.4786
     21 C         142.1354  141.4399  167.8822 C.3     1  UNL1        0.0799
     22 C         142.8475  142.3310  168.8564 C.3     1  UNL1        0.0096
     23 C         141.8119  143.0713  169.6500 C.3     1  UNL1        0.0042
     24 C         140.4599  142.6377  169.1661 C.3     1  UNL1        0.0439
     25 C         140.6598  141.6295  168.0736 C.3     1  UNL1        0.1713
     26 C         143.5711  142.3346  165.0915 C.3     1  UNL1        0.1533
     27 N         143.4449  140.9319  165.6080 N.ar    1  UNL1       -0.2527
     28 N         143.9565  139.6942  164.9324 N.ar    1  UNL1       -0.1679
     29 C         143.6128  138.5181  165.7976 C.ar    1  UNL1        0.1213
     30 C         142.8888  139.0289  167.0080 C.ar    1  UNL1        0.0369
     31 C         142.7850  140.5207  166.8907 C.ar    1  UNL1        0.0603
@<TRIPOS>BOND
     1    26    27    1
     2    27    28   ar
     3    28    29   ar
     4    29    30   ar
     5    30    31   ar
     6    21    31    1
     7    21    22    1
     8    22    23    1
     9    23    24    1
    10    24    25    1
    11    25    20    1
    12    20     1    1
    13     1     2   ar
    14     2     3   ar
    15     3     4    1
    16     3     5   ar
    17     5     9    1
    18     9    10    2
    19     9    11    2
    20     9    12    1
    21    12    14    1
    22    14    15   ar
    23    15    16   ar
    24    16    17   ar
    25    17    18   ar
    26    18    19   ar
    27     5     6   ar
    28     6     7    1
    29     6     8   ar
    30    31    27   ar
    31    25    21    1
    32     8     1   ar
    33    19    14   ar
    34    12    13    1
