@<TRIPOS>MOLECULE
*****
 34 36 0 0 0
SMALL
GASTEIGER

@<TRIPOS>ATOM
      1 C         140.7416  144.3933  162.4345 C.3     1  UNL1        0.1102
      2 C         139.3768  144.3798  161.8125 C.3     1  UNL1        0.0296
      3 C         138.3496  143.3913  162.2793 C.3     1  UNL1        0.0730
      4 N         138.6873  142.4164  163.3681 N.3     1  UNL1       -0.2689
      5 C         140.0522  142.4299  163.9901 C.3     1  UNL1        0.0730
      6 C         141.0793  143.4184  163.5233 C.3     1  UNL1        0.0296
      7 C         142.1604  144.7937  162.7118 C.2     1  UNL1        0.3177
      8 O         142.4901  145.5803  163.9458 O.2     1  UNL1       -0.2501
      9 C         144.4729  143.7003  162.2576 C.3     1  UNL1        0.2556
     10 O         143.2493  144.4076  161.7553 O.3     1  UNL1       -0.4444
     11 C         140.8966  145.5072  161.4420 C.3     1  UNL1        0.1002
     12 N         140.0967  145.4979  160.1731 N.am    1  UNL1       -0.3003
     13 C         140.7930  145.3979  158.8483 C.2     1  UNL1        0.2461
     14 O         142.2892  145.3071  158.7924 O.2     1  UNL1       -0.2701
     15 H         139.1147  145.5575  160.2098 H       1  UNL1        0.1498
     16 C         139.9931  145.3885  157.5794 C.ar    1  UNL1        0.0594
     17 C         139.3697  144.1131  157.0951 C.ar    1  UNL1        0.0416
     18 C         138.5698  144.1038  155.8263 C.ar    1  UNL1        0.1419
     19 C         138.3933  145.3699  155.0416 C.ar    1  UNL1        0.0738
     20 C         139.0167  146.6455  155.5259 C.ar    1  UNL1        0.1419
     21 C         139.8166  146.6548  156.7948 C.ar    1  UNL1        0.0416
     22 O         137.9464  142.8282  155.3420 O.3     1  UNL1       -0.4713
     23 C         138.1755  141.5496  156.0920 C.3     1  UNL1        0.2525
     24 O         138.8402  147.9116  154.7412 O.3     1  UNL1       -0.4713
     25 C         138.7742  149.2311  155.4516 C.3     1  UNL1        0.2525
     26 C         137.6601  141.4280  163.8349 C.3     1  UNL1        0.1022
     27 C         138.0810  140.0512  164.2557 C.ar    1  UNL1        0.0279
     28 C         138.0579  139.6705  165.7065 C.ar    1  UNL1        0.0001
     29 C         138.4788  138.2936  166.1275 C.ar    1  UNL1       -0.0001
     30 C         138.9228  137.2974  165.0977 C.ar    1  UNL1        0.0031
     31 C         138.9459  137.6781  163.6469 C.ar    1  UNL1        0.0366
     32 C         138.5250  139.0549  163.2260 C.ar    1  UNL1        0.1360
     33 O         138.5481  139.4356  161.7753 O.3     1  UNL1       -0.4717
     34 C         139.8516  139.7520  161.1037 C.3     1  UNL1        0.2525
@<TRIPOS>BOND
     1     9    10    1
     2    10     7    1
     3     7     8    2
     4     7     1    1
     5     1    11    1
     6    11    12    1
     7    12    13   am
     8    13    14    2
     9    13    16    1
    10    16    17   ar
    11    17    18   ar
    12    18    22    1
    13    22    23    1
    14    18    19   ar
    15    19    20   ar
    16    20    24    1
    17    24    25    1
    18    20    21   ar
    19     1     2    1
    20     2     3    1
    21     3     4    1
    22     4    26    1
    23    26    27    1
    24    27    28   ar
    25    28    29   ar
    26    29    30   ar
    27    30    31   ar
    28    31    32   ar
    29    32    33    1
    30    33    34    1
    31     4     5    1
    32     5     6    1
    33     6     1    1
    34    21    16   ar
    35    32    27   ar
    36    12    15    1
@<TRIPOS>MOLECULE
*****
 34 36 0 0 0
SMALL
GASTEIGER

@<TRIPOS>ATOM
      1 C         142.1248  143.9522  163.3177 C.3     1  UNL1        0.1102
      2 C         140.8289  144.5052  163.8321 C.3     1  UNL1        0.0296
      3 C         140.1213  143.8258  164.9668 C.3     1  UNL1        0.0730
      4 N         140.7096  142.5933  165.5872 N.3     1  UNL1       -0.2689
      5 C         142.0056  142.0402  165.0728 C.3     1  UNL1        0.0730
      6 C         142.7132  142.7197  163.9380 C.3     1  UNL1        0.0296
      7 C         143.3662  143.8101  162.4877 C.2     1  UNL1        0.3177
      8 O         144.4050  144.8920  162.5008 O.2     1  UNL1       -0.2501
      9 C         144.6193  142.5780  160.5742 C.3     1  UNL1        0.2556
     10 O         143.5687  142.5861  161.6447 O.3     1  UNL1       -0.4444
     11 C         141.9675  145.1353  162.4092 C.3     1  UNL1        0.1002
     12 N         142.0923  144.9626  160.9244 N.am    1  UNL1       -0.3003
     13 C         140.9544  145.3482  160.0262 C.2     1  UNL1        0.2461
     14 O         139.6919  145.9065  160.6129 O.2     1  UNL1       -0.2701
     15 H         142.9210  144.5962  160.5393 H       1  UNL1        0.1498
     16 C         141.0792  145.1755  158.5414 C.ar    1  UNL1        0.0594
     17 C         142.0664  144.1952  157.9807 C.ar    1  UNL1        0.0416
     18 C         142.1912  144.0224  156.4960 C.ar    1  UNL1        0.1419
     19 C         141.3288  144.8300  155.5719 C.ar    1  UNL1        0.0738
     20 C         140.3415  145.8104  156.1325 C.ar    1  UNL1        0.1419
     21 C         140.2167  145.9831  157.6173 C.ar    1  UNL1        0.0416
     22 O         143.1784  143.0421  155.9353 O.3     1  UNL1       -0.4713
     23 C         144.2379  142.4553  156.8202 C.3     1  UNL1        0.2525
     24 O         139.4791  146.6180  155.2084 O.3     1  UNL1       -0.4713
     25 C         138.9794  147.9662  155.6356 C.3     1  UNL1        0.2525
     26 C         140.0020  141.9138  166.7219 C.3     1  UNL1        0.1022
     27 C         140.6097  141.9155  168.0932 C.ar    1  UNL1        0.0279
     28 C         140.4325  143.1043  168.9907 C.ar    1  UNL1        0.0001
     29 C         141.0402  143.1060  170.3621 C.ar    1  UNL1       -0.0001
     30 C         141.8250  141.9189  170.8361 C.ar    1  UNL1        0.0031
     31 C         142.0022  140.7301  169.9387 C.ar    1  UNL1        0.0366
     32 C         141.3946  140.7284  168.5673 C.ar    1  UNL1        0.1360
     33 O         141.5718  139.5396  167.6699 O.3     1  UNL1       -0.4717
     34 C         142.9504  139.0629  167.3201 C.3     1  UNL1        0.2525
@<TRIPOS>BOND
     1     9    10    1
     2    10     7    1
     3     7     8    2
     4     7     1    1
     5     1    11    1
     6    11    12    1
     7    12    13   am
     8    13    14    2
     9    13    16    1
    10    16    17   ar
    11    17    18   ar
    12    18    22    1
    13    22    23    1
    14    18    19   ar
    15    19    20   ar
    16    20    24    1
    17    24    25    1
    18    20    21   ar
    19     1     2    1
    20     2     3    1
    21     3     4    1
    22     4    26    1
    23    26    27    1
    24    27    28   ar
    25    28    29   ar
    26    29    30   ar
    27    30    31   ar
    28    31    32   ar
    29    32    33    1
    30    33    34    1
    31     4     5    1
    32     5     6    1
    33     6     1    1
    34    21    16   ar
    35    32    27   ar
    36    12    15    1
@<TRIPOS>MOLECULE
*****
 34 36 0 0 0
SMALL
GASTEIGER

@<TRIPOS>ATOM
      1 C         143.1703  139.2757  159.7129 C.3     1  UNL1        0.1102
      2 C         142.4572  138.0327  160.1561 C.3     1  UNL1        0.0296
      3 C         142.2670  137.7581  161.6184 C.3     1  UNL1        0.0730
      4 N         142.7901  138.7266  162.6375 N.3     1  UNL1       -0.2689
      5 C         143.5032  139.9695  162.1943 C.3     1  UNL1        0.0730
      6 C         143.6933  140.2441  160.7320 C.3     1  UNL1        0.0296
      7 C         143.7747  140.3067  158.8063 C.2     1  UNL1        0.3177
      8 O         143.6845  141.7616  159.1600 O.2     1  UNL1       -0.2501
      9 C         145.3316  140.8577  156.8008 C.3     1  UNL1        0.2556
     10 O         144.4692  139.8828  157.5463 O.3     1  UNL1       -0.4444
     11 C         142.8571  138.6653  158.3789 C.3     1  UNL1        0.1002
     12 N         142.9084  137.1763  158.2048 N.am    1  UNL1       -0.3003
     13 C         142.7446  136.5747  156.8405 C.2     1  UNL1        0.2461
     14 O         142.5296  137.4620  155.6504 O.2     1  UNL1       -0.2701
     15 H         143.0495  136.5939  158.9859 H       1  UNL1        0.1498
     16 C         142.7959  135.0857  156.6664 C.ar    1  UNL1        0.0594
     17 C         143.7909  134.2738  157.4413 C.ar    1  UNL1        0.0416
     18 C         143.8422  132.7848  157.2672 C.ar    1  UNL1        0.1419
     19 C         142.8984  132.1078  156.3182 C.ar    1  UNL1        0.0738
     20 C         141.9033  132.9197  155.5431 C.ar    1  UNL1        0.1419
     21 C         141.8520  134.4087  155.7173 C.ar    1  UNL1        0.0416
     22 O         144.8373  131.9729  158.0423 O.3     1  UNL1       -0.4713
     23 C         144.7552  130.4752  158.0303 C.3     1  UNL1        0.2525
     24 O         140.9595  132.2426  154.5941 O.3     1  UNL1       -0.4713
     25 C         140.5876  130.8047  154.8043 C.3     1  UNL1        0.2525
     26 C         142.6000  138.4520  164.0999 C.3     1  UNL1        0.1022
     27 C         141.2470  138.6207  164.7250 C.ar    1  UNL1        0.0279
     28 C         140.2320  137.5207  164.6248 C.ar    1  UNL1        0.0001
     29 C         138.8789  137.6894  165.2499 C.ar    1  UNL1       -0.0001
     30 C         138.5408  138.9581  165.9752 C.ar    1  UNL1        0.0031
     31 C         139.5557  140.0581  166.0754 C.ar    1  UNL1        0.0366
     32 C         140.9087  139.8894  165.4503 C.ar    1  UNL1        0.1360
     33 O         141.9236  140.9894  165.5505 O.3     1  UNL1       -0.4717
     34 C         141.7203  142.2685  164.7937 C.3     1  UNL1        0.2525
@<TRIPOS>BOND
     1     9    10    1
     2    10     7    1
     3     7     8    2
     4     7     1    1
     5     1    11    1
     6    11    12    1
     7    12    13   am
     8    13    14    2
     9    13    16    1
    10    16    17   ar
    11    17    18   ar
    12    18    22    1
    13    22    23    1
    14    18    19   ar
    15    19    20   ar
    16    20    24    1
    17    24    25    1
    18    20    21   ar
    19     1     2    1
    20     2     3    1
    21     3     4    1
    22     4    26    1
    23    26    27    1
    24    27    28   ar
    25    28    29   ar
    26    29    30   ar
    27    30    31   ar
    28    31    32   ar
    29    32    33    1
    30    33    34    1
    31     4     5    1
    32     5     6    1
    33     6     1    1
    34    21    16   ar
    35    32    27   ar
    36    12    15    1
@<TRIPOS>MOLECULE
*****
 34 36 0 0 0
SMALL
GASTEIGER

@<TRIPOS>ATOM
      1 C         143.0936  139.2817  159.3274 C.3     1  UNL1        0.1102
      2 C         142.3975  138.0348  159.7861 C.3     1  UNL1        0.0296
      3 C         142.2202  137.7709  161.2520 C.3     1  UNL1        0.0730
      4 N         142.7391  138.7540  162.2592 N.3     1  UNL1       -0.2689
      5 C         143.4352  140.0009  161.8004 C.3     1  UNL1        0.0730
      6 C         143.6125  140.2648  160.3345 C.3     1  UNL1        0.0296
      7 C         143.6803  140.3115  158.4079 C.2     1  UNL1        0.3177
      8 O         143.1296  141.7067  158.3955 O.2     1  UNL1       -0.2501
      9 C         145.4013  140.9745  156.5780 C.3     1  UNL1        0.2556
     10 O         144.8177  139.9461  157.5008 O.3     1  UNL1       -0.4444
     11 C         142.7785  138.6562  158.0009 C.3     1  UNL1        0.1002
     12 N         142.6156  137.1690  157.8928 N.am    1  UNL1       -0.3003
     13 C         143.3177  136.4150  156.8026 C.2     1  UNL1        0.2461
     14 O         144.1827  137.1481  155.8206 O.2     1  UNL1       -0.2701
     15 H         142.0479  136.6879  158.5373 H       1  UNL1        0.1498
     16 C         143.1548  134.9278  156.6944 C.ar    1  UNL1        0.0594
     17 C         142.0638  134.3529  155.8405 C.ar    1  UNL1        0.0416
     18 C         141.9008  132.8657  155.7323 C.ar    1  UNL1        0.1419
     19 C         142.8289  131.9534  156.4781 C.ar    1  UNL1        0.0738
     20 C         143.9200  132.5282  157.3321 C.ar    1  UNL1        0.1419
     21 C         144.0829  134.0154  157.4402 C.ar    1  UNL1        0.0416
     22 O         140.8097  132.2909  154.8783 O.3     1  UNL1       -0.4713
     23 C         140.6858  130.8045  154.7197 C.3     1  UNL1        0.2525
     24 O         144.8480  131.6158  158.0778 O.3     1  UNL1       -0.4713
     25 C         144.5709  130.1425  158.1287 C.3     1  UNL1        0.2525
     26 C         142.5618  138.4901  163.7251 C.3     1  UNL1        0.1022
     27 C         141.2139  138.6614  164.3604 C.ar    1  UNL1        0.0279
     28 C         140.3043  137.4792  164.5201 C.ar    1  UNL1        0.0001
     29 C         138.9563  137.6505  165.1553 C.ar    1  UNL1       -0.0001
     30 C         138.5178  139.0038  165.6309 C.ar    1  UNL1        0.0031
     31 C         139.4273  140.1859  165.4712 C.ar    1  UNL1        0.0366
     32 C         140.7753  140.0146  164.8360 C.ar    1  UNL1        0.1360
     33 O         141.6848  141.1967  164.6763 O.3     1  UNL1       -0.4717
     34 C         142.2022  141.9140  165.8879 C.3     1  UNL1        0.2525
@<TRIPOS>BOND
     1     9    10    1
     2    10     7    1
     3     7     8    2
     4     7     1    1
     5     1    11    1
     6    11    12    1
     7    12    13   am
     8    13    14    2
     9    13    16    1
    10    16    17   ar
    11    17    18   ar
    12    18    22    1
    13    22    23    1
    14    18    19   ar
    15    19    20   ar
    16    20    24    1
    17    24    25    1
    18    20    21   ar
    19     1     2    1
    20     2     3    1
    21     3     4    1
    22     4    26    1
    23    26    27    1
    24    27    28   ar
    25    28    29   ar
    26    29    30   ar
    27    30    31   ar
    28    31    32   ar
    29    32    33    1
    30    33    34    1
    31     4     5    1
    32     5     6    1
    33     6     1    1
    34    21    16   ar
    35    32    27   ar
    36    12    15    1
@<TRIPOS>MOLECULE
*****
 34 36 0 0 0
SMALL
GASTEIGER

@<TRIPOS>ATOM
      1 C         138.6711  141.1221  164.2250 C.3     1  UNL1        0.1102
      2 C         139.4321  142.1699  164.9818 C.3     1  UNL1        0.0296
      3 C         139.8666  141.9083  166.3935 C.3     1  UNL1        0.0730
      4 N         139.5401  140.5988  167.0482 N.3     1  UNL1       -0.2689
      5 C         138.7791  139.5510  166.2914 C.3     1  UNL1        0.0730
      6 C         138.3446  139.8126  164.8797 C.3     1  UNL1        0.0296
      7 C         137.9347  140.4477  163.1056 C.2     1  UNL1        0.3177
      8 O         136.9602  141.2264  162.2725 O.2     1  UNL1       -0.2501
      9 C         137.6146  138.3744  161.5730 C.3     1  UNL1        0.2556
     10 O         138.1726  138.9946  162.8195 O.3     1  UNL1       -0.4444
     11 C         138.7418  142.1973  163.1815 C.3     1  UNL1        0.1002
     12 N         139.8194  142.1607  162.1387 N.am    1  UNL1       -0.3003
     13 C         139.9748  143.3042  161.1804 C.2     1  UNL1        0.2461
     14 O         139.0528  144.4843  161.2650 O.2     1  UNL1       -0.2701
     15 H         140.4245  141.3861  162.0831 H       1  UNL1        0.1498
     16 C         141.0524  143.2676  160.1375 C.ar    1  UNL1        0.0594
     17 C         141.9939  142.1018  160.0725 C.ar    1  UNL1        0.0416
     18 C         143.0714  142.0651  159.0296 C.ar    1  UNL1        0.1419
     19 C         143.2074  143.1943  158.0517 C.ar    1  UNL1        0.0738
     20 C         142.2659  144.3603  158.1167 C.ar    1  UNL1        0.1419
     21 C         141.1883  144.3969  159.1596 C.ar    1  UNL1        0.0416
     22 O         144.0130  140.8992  158.9647 O.3     1  UNL1       -0.4713
     23 C         143.8475  139.7479  159.9118 C.3     1  UNL1        0.2525
     24 O         142.4018  145.4895  157.1388 O.3     1  UNL1       -0.4713
     25 C         142.2243  145.2360  155.6710 C.3     1  UNL1        0.2525
     26 C         139.9746  140.3372  168.4599 C.3     1  UNL1        0.1022
     27 C         141.0235  141.2018  169.0942 C.ar    1  UNL1        0.0279
     28 C         140.6564  142.5523  169.6341 C.ar    1  UNL1        0.0001
     29 C         141.7053  143.4169  170.2684 C.ar    1  UNL1       -0.0001
     30 C         143.1213  142.9310  170.3629 C.ar    1  UNL1        0.0031
     31 C         143.4883  141.5804  169.8230 C.ar    1  UNL1        0.0366
     32 C         142.4394  140.7159  169.1887 C.ar    1  UNL1        0.1360
     33 O         142.8065  139.3654  168.6488 O.3     1  UNL1       -0.4717
     34 C         143.0075  139.1765  167.1743 C.3     1  UNL1        0.2525
@<TRIPOS>BOND
     1     9    10    1
     2    10     7    1
     3     7     8    2
     4     7     1    1
     5     1    11    1
     6    11    12    1
     7    12    13   am
     8    13    14    2
     9    13    16    1
    10    16    17   ar
    11    17    18   ar
    12    18    22    1
    13    22    23    1
    14    18    19   ar
    15    19    20   ar
    16    20    24    1
    17    24    25    1
    18    20    21   ar
    19     1     2    1
    20     2     3    1
    21     3     4    1
    22     4    26    1
    23    26    27    1
    24    27    28   ar
    25    28    29   ar
    26    29    30   ar
    27    30    31   ar
    28    31    32   ar
    29    32    33    1
    30    33    34    1
    31     4     5    1
    32     5     6    1
    33     6     1    1
    34    21    16   ar
    35    32    27   ar
    36    12    15    1
@<TRIPOS>MOLECULE
*****
 34 36 0 0 0
SMALL
GASTEIGER

@<TRIPOS>ATOM
      1 C         142.0534  139.2417  158.4668 C.3     1  UNL1        0.1102
      2 C         140.8643  138.5018  157.9296 C.3     1  UNL1        0.0296
      3 C         139.6080  138.4093  158.7439 C.3     1  UNL1        0.0730
      4 N         139.5408  139.0566  160.0954 N.3     1  UNL1       -0.2689
      5 C         140.7299  139.7964  160.6326 C.3     1  UNL1        0.0730
      6 C         141.9862  139.8890  159.8183 C.3     1  UNL1        0.0296
      7 C         143.4322  139.8274  158.5440 C.2     1  UNL1        0.3177
      8 O         144.3116  139.5230  159.7204 O.2     1  UNL1       -0.2501
      9 C         145.0082  141.7236  157.7250 C.3     1  UNL1        0.2556
     10 O         143.9315  140.7175  157.4447 O.3     1  UNL1       -0.4444
     11 C         142.5994  138.7978  157.1422 C.3     1  UNL1        0.1002
     12 N         142.4489  137.3695  156.7095 N.am    1  UNL1       -0.3003
     13 C         143.5561  136.6933  155.9564 C.2     1  UNL1        0.2461
     14 O         144.8137  137.4454  155.6362 O.2     1  UNL1       -0.2701
     15 H         141.6234  136.8758  156.9197 H       1  UNL1        0.1498
     16 C         143.4055  135.2649  155.5238 C.ar    1  UNL1        0.0594
     17 C         142.5797  134.9298  154.3173 C.ar    1  UNL1        0.0416
     18 C         142.4291  133.5015  153.8846 C.ar    1  UNL1        0.1419
     19 C         143.1045  132.4083  154.6584 C.ar    1  UNL1        0.0738
     20 C         143.9304  132.7434  155.8649 C.ar    1  UNL1        0.1419
     21 C         144.0810  134.1717  156.2976 C.ar    1  UNL1        0.0416
     22 O         141.6032  133.1664  152.6781 O.3     1  UNL1       -0.4713
     23 C         140.7833  131.9105  152.6557 C.3     1  UNL1        0.2525
     24 O         144.6058  131.6502  156.6387 O.3     1  UNL1       -0.4713
     25 C         145.2745  131.9590  157.9453 C.3     1  UNL1        0.2525
     26 C         138.2844  138.9640  160.9096 C.3     1  UNL1        0.1022
     27 C         138.3447  139.1118  162.4011 C.ar    1  UNL1        0.0279
     28 C         138.8921  137.9980  163.2436 C.ar    1  UNL1        0.0001
     29 C         138.9524  138.1457  164.7352 C.ar    1  UNL1       -0.0001
     30 C         138.4653  139.4073  165.3841 C.ar    1  UNL1        0.0031
     31 C         137.9179  140.5211  164.5416 C.ar    1  UNL1        0.0366
     32 C         137.8577  140.3733  163.0501 C.ar    1  UNL1        0.1360
     33 O         137.3103  141.4872  162.2076 O.3     1  UNL1       -0.4717
     34 C         138.1909  142.6391  161.8232 C.3     1  UNL1        0.2525
@<TRIPOS>BOND
     1     9    10    1
     2    10     7    1
     3     7     8    2
     4     7     1    1
     5     1    11    1
     6    11    12    1
     7    12    13   am
     8    13    14    2
     9    13    16    1
    10    16    17   ar
    11    17    18   ar
    12    18    22    1
    13    22    23    1
    14    18    19   ar
    15    19    20   ar
    16    20    24    1
    17    24    25    1
    18    20    21   ar
    19     1     2    1
    20     2     3    1
    21     3     4    1
    22     4    26    1
    23    26    27    1
    24    27    28   ar
    25    28    29   ar
    26    29    30   ar
    27    30    31   ar
    28    31    32   ar
    29    32    33    1
    30    33    34    1
    31     4     5    1
    32     5     6    1
    33     6     1    1
    34    21    16   ar
    35    32    27   ar
    36    12    15    1
@<TRIPOS>MOLECULE
*****
 34 36 0 0 0
SMALL
GASTEIGER

@<TRIPOS>ATOM
      1 C         141.9344  139.3009  159.1682 C.3     1  UNL1        0.1102
      2 C         140.6386  138.9524  158.4979 C.3     1  UNL1        0.0296
      3 C         139.3365  139.3101  159.1510 C.3     1  UNL1        0.0730
      4 N         139.3302  140.0163  160.4744 N.3     1  UNL1       -0.2689
      5 C         140.6260  140.3648  161.1446 C.3     1  UNL1        0.0730
      6 C         141.9282  140.0071  160.4916 C.3     1  UNL1        0.0296
      7 C         143.4105  139.4184  159.4078 C.2     1  UNL1        0.3177
      8 O         144.3191  139.8490  158.2947 O.2     1  UNL1       -0.2501
      9 C         144.0079  137.6881  161.2516 C.3     1  UNL1        0.2556
     10 O         143.9780  139.1051  160.7605 O.3     1  UNL1       -0.4444
     11 C         142.4533  138.6355  157.9281 C.3     1  UNL1        0.1002
     12 N         142.5344  137.1394  157.8576 N.am    1  UNL1       -0.3003
     13 C         142.5621  136.4517  156.5248 C.2     1  UNL1        0.2461
     14 O         142.5086  137.2602  155.2625 O.2     1  UNL1       -0.2701
     15 H         142.5695  136.6088  158.6861 H       1  UNL1        0.1498
     16 C         142.6432  134.9556  156.4543 C.ar    1  UNL1        0.0594
     17 C         141.6750  134.1913  155.6008 C.ar    1  UNL1        0.0416
     18 C         141.7561  132.6952  155.5304 C.ar    1  UNL1        0.1419
     19 C         142.8054  131.9633  156.3134 C.ar    1  UNL1        0.0738
     20 C         143.7737  132.7275  157.1669 C.ar    1  UNL1        0.1419
     21 C         143.6926  134.2237  157.2374 C.ar    1  UNL1        0.0416
     22 O         140.7878  131.9310  154.6769 O.3     1  UNL1       -0.4713
     23 C         141.0770  131.7191  153.2204 C.3     1  UNL1        0.2525
     24 O         144.8231  131.9956  157.9499 O.3     1  UNL1       -0.4713
     25 C         144.7459  130.5048  158.0966 C.3     1  UNL1        0.2525
     26 C         138.0280  140.3740  161.1274 C.3     1  UNL1        0.1022
     27 C         137.9773  141.4729  162.1470 C.ar    1  UNL1        0.0279
     28 C         137.8188  141.1402  163.6011 C.ar    1  UNL1        0.0001
     29 C         137.7681  142.2391  164.6208 C.ar    1  UNL1       -0.0001
     30 C         137.8758  143.6708  164.1865 C.ar    1  UNL1        0.0031
     31 C         138.0342  144.0035  162.7324 C.ar    1  UNL1        0.0366
     32 C         138.0850  142.9046  161.7128 C.ar    1  UNL1        0.1360
     33 O         138.2434  143.2373  160.2587 O.3     1  UNL1       -0.4717
     34 C         139.5910  143.6141  159.7182 C.3     1  UNL1        0.2525
@<TRIPOS>BOND
     1     9    10    1
     2    10     7    1
     3     7     8    2
     4     7     1    1
     5     1    11    1
     6    11    12    1
     7    12    13   am
     8    13    14    2
     9    13    16    1
    10    16    17   ar
    11    17    18   ar
    12    18    22    1
    13    22    23    1
    14    18    19   ar
    15    19    20   ar
    16    20    24    1
    17    24    25    1
    18    20    21   ar
    19     1     2    1
    20     2     3    1
    21     3     4    1
    22     4    26    1
    23    26    27    1
    24    27    28   ar
    25    28    29   ar
    26    29    30   ar
    27    30    31   ar
    28    31    32   ar
    29    32    33    1
    30    33    34    1
    31     4     5    1
    32     5     6    1
    33     6     1    1
    34    21    16   ar
    35    32    27   ar
    36    12    15    1
@<TRIPOS>MOLECULE
*****
 34 36 0 0 0
SMALL
GASTEIGER

@<TRIPOS>ATOM
      1 C         138.5610  141.4052  164.3596 C.3     1  UNL1        0.1102
      2 C         139.3409  142.4071  165.1583 C.3     1  UNL1        0.0296
      3 C         139.8996  142.0275  166.4975 C.3     1  UNL1        0.0730
      4 N         139.6785  140.6458  167.0382 N.3     1  UNL1       -0.2689
      5 C         138.8986  139.6439  166.2395 C.3     1  UNL1        0.0730
      6 C         138.3398  140.0235  164.9002 C.3     1  UNL1        0.0296
      7 C         137.7615  140.8114  163.2379 C.2     1  UNL1        0.3177
      8 O         136.8143  141.6715  162.4548 O.2     1  UNL1       -0.2501
      9 C         137.7252  138.8947  161.4844 C.3     1  UNL1        0.2556
     10 O         137.9091  139.3577  162.8992 O.3     1  UNL1       -0.4444
     11 C         138.5045  142.5806  163.4295 C.3     1  UNL1        0.1002
     12 N         139.4877  142.6929  162.3022 N.am    1  UNL1       -0.3003
     13 C         139.6327  143.9882  161.5597 C.2     1  UNL1        0.2461
     14 O         138.7945  145.1711  161.9445 O.2     1  UNL1       -0.2701
     15 H         140.0379  141.9165  162.0497 H       1  UNL1        0.1498
     16 C         140.6159  144.1005  160.4325 C.ar    1  UNL1        0.0594
     17 C         140.3442  145.0343  159.2905 C.ar    1  UNL1        0.0416
     18 C         141.3274  145.1466  158.1632 C.ar    1  UNL1        0.1419
     19 C         142.5823  144.3251  158.1779 C.ar    1  UNL1        0.0738
     20 C         142.8541  143.3913  159.3200 C.ar    1  UNL1        0.1419
     21 C         141.8709  143.2790  160.4472 C.ar    1  UNL1        0.0416
     22 O         141.0555  146.0804  157.0212 O.3     1  UNL1       -0.4713
     23 C         141.4342  145.6868  155.6241 C.3     1  UNL1        0.2525
     24 O         144.1091  142.5698  159.3347 O.3     1  UNL1       -0.4713
     25 C         144.8979  142.3827  158.0726 C.3     1  UNL1        0.2525
     26 C         140.2372  140.2662  168.3774 C.3     1  UNL1        0.1022
     27 C         141.1833  141.1905  169.0847 C.ar    1  UNL1        0.0279
     28 C         140.7419  142.5752  169.4562 C.ar    1  UNL1        0.0001
     29 C         141.6880  143.4997  170.1635 C.ar    1  UNL1       -0.0001
     30 C         143.0756  143.0394  170.4994 C.ar    1  UNL1        0.0031
     31 C         143.5170  141.6548  170.1280 C.ar    1  UNL1        0.0366
     32 C         142.5709  140.7304  169.4207 C.ar    1  UNL1        0.1360
     33 O         143.0123  139.3457  169.0492 O.3     1  UNL1       -0.4717
     34 C         142.9569  138.2432  170.0649 C.3     1  UNL1        0.2525
@<TRIPOS>BOND
     1     9    10    1
     2    10     7    1
     3     7     8    2
     4     7     1    1
     5     1    11    1
     6    11    12    1
     7    12    13   am
     8    13    14    2
     9    13    16    1
    10    16    17   ar
    11    17    18   ar
    12    18    22    1
    13    22    23    1
    14    18    19   ar
    15    19    20   ar
    16    20    24    1
    17    24    25    1
    18    20    21   ar
    19     1     2    1
    20     2     3    1
    21     3     4    1
    22     4    26    1
    23    26    27    1
    24    27    28   ar
    25    28    29   ar
    26    29    30   ar
    27    30    31   ar
    28    31    32   ar
    29    32    33    1
    30    33    34    1
    31     4     5    1
    32     5     6    1
    33     6     1    1
    34    21    16   ar
    35    32    27   ar
    36    12    15    1
@<TRIPOS>MOLECULE
*****
 34 36 0 0 0
SMALL
GASTEIGER

@<TRIPOS>ATOM
      1 C         142.3963  144.0524  163.7824 C.3     1  UNL1        0.1102
      2 C         140.9579  144.2955  164.1313 C.3     1  UNL1        0.0296
      3 C         140.3027  143.4914  165.2149 C.3     1  UNL1        0.0730
      4 N         141.0860  142.4441  165.9496 N.3     1  UNL1       -0.2689
      5 C         142.5244  142.2010  165.6006 C.3     1  UNL1        0.0730
      6 C         143.1796  143.0051  164.5171 C.3     1  UNL1        0.0296
      7 C         143.7227  144.1895  163.0955 C.2     1  UNL1        0.3177
      8 O         144.2781  145.5517  162.8023 O.2     1  UNL1       -0.2501
      9 C         144.6768  142.6275  161.2517 C.3     1  UNL1        0.2556
     10 O         144.4936  142.9646  162.7018 O.3     1  UNL1       -0.4444
     11 C         142.0736  145.1473  162.8092 C.3     1  UNL1        0.1002
     12 N         141.8159  144.8183  161.3686 N.am    1  UNL1       -0.3003
     13 C         140.5509  145.2809  160.7083 C.2     1  UNL1        0.2461
     14 O         139.5437  146.0723  161.4887 O.2     1  UNL1       -0.2701
     15 H         142.4770  144.2989  160.8564 H       1  UNL1        0.1498
     16 C         140.2932  144.9520  159.2677 C.ar    1  UNL1        0.0594
     17 C         139.6154  143.6648  158.9019 C.ar    1  UNL1        0.0416
     18 C         139.3577  143.3359  157.4613 C.ar    1  UNL1        0.1419
     19 C         139.7779  144.2941  156.3865 C.ar    1  UNL1        0.0738
     20 C         140.4558  145.5813  156.7522 C.ar    1  UNL1        0.1419
     21 C         140.7134  145.9102  158.1929 C.ar    1  UNL1        0.0416
     22 O         138.6799  142.0487  157.0955 O.3     1  UNL1       -0.4713
     23 C         139.1042  140.7661  157.7472 C.3     1  UNL1        0.2525
     24 O         140.8759  146.5395  155.6774 O.3     1  UNL1       -0.4713
     25 C         139.9109  146.9221  154.5946 C.3     1  UNL1        0.2525
     26 C         140.4309  141.6400  167.0331 C.3     1  UNL1        0.1022
     27 C         141.2432  141.1376  168.1897 C.ar    1  UNL1        0.0279
     28 C         141.6500  139.6951  168.2502 C.ar    1  UNL1        0.0001
     29 C         142.4623  139.1927  169.4068 C.ar    1  UNL1       -0.0001
     30 C         142.8679  140.1328  170.5030 C.ar    1  UNL1        0.0031
     31 C         142.4611  141.5754  170.4425 C.ar    1  UNL1        0.0366
     32 C         141.6488  142.0777  169.2859 C.ar    1  UNL1        0.1360
     33 O         141.2420  143.5203  169.2255 O.3     1  UNL1       -0.4717
     34 C         140.1978  144.0451  170.1660 C.3     1  UNL1        0.2525
@<TRIPOS>BOND
     1     9    10    1
     2    10     7    1
     3     7     8    2
     4     7     1    1
     5     1    11    1
     6    11    12    1
     7    12    13   am
     8    13    14    2
     9    13    16    1
    10    16    17   ar
    11    17    18   ar
    12    18    22    1
    13    22    23    1
    14    18    19   ar
    15    19    20   ar
    16    20    24    1
    17    24    25    1
    18    20    21   ar
    19     1     2    1
    20     2     3    1
    21     3     4    1
    22     4    26    1
    23    26    27    1
    24    27    28   ar
    25    28    29   ar
    26    29    30   ar
    27    30    31   ar
    28    31    32   ar
    29    32    33    1
    30    33    34    1
    31     4     5    1
    32     5     6    1
    33     6     1    1
    34    21    16   ar
    35    32    27   ar
    36    12    15    1
