@<TRIPOS>MOLECULE
*****
 23 25 0 0 0
SMALL
GASTEIGER

@<TRIPOS>ATOM
      1 C         140.7589  137.2534  163.2048 C.3     1  UNL1        0.0722
      2 C         139.8992  138.3408  162.6317 C.ar    1  UNL1        0.1251
      3 N         139.6220  138.5705  161.1754 N.ar    1  UNL1       -0.2227
      4 C         138.7172  139.7611  161.0580 C.ar    1  UNL1        0.1360
      5 C         138.4352  140.2673  162.4416 C.ar    1  UNL1        0.0682
      6 C         137.5740  141.4446  162.7911 C.3     1  UNL1        0.0527
      7 N         139.1657  139.3896  163.4141 N.ar    1  UNL1       -0.2967
      8 C         139.1632  139.5350  164.9070 C.ar    1  UNL1        0.0649
      9 C         140.2247  140.3513  165.5829 C.ar    1  UNL1        0.0198
     10 C         140.2221  140.4967  167.0758 C.ar    1  UNL1        0.0311
     11 C         139.1581  139.8258  167.8929 C.ar    1  UNL1        0.1402
     12 F         139.1555  139.9712  169.3858 F       1  UNL1       -0.2042
     13 C         138.0965  139.0094  167.2170 C.ar    1  UNL1        0.0311
     14 C         138.0991  138.8641  165.7241 C.ar    1  UNL1        0.0198
     15 C         138.1875  140.3433  159.7811 C.1     1  UNL1       -0.0393
     16 C         137.6577  140.9254  158.5042 C.1     1  UNL1       -0.0581
     17 C         137.1280  141.5076  157.2273 C.ar    1  UNL1        0.0459
     18 C         136.1367  140.7374  156.4063 C.ar    1  UNL1        0.0290
     19 C         135.6070  141.3196  155.1295 C.ar    1  UNL1        0.1005
     20 N         136.0686  142.6720  154.6736 N.ar    1  UNL1       -0.2324
     21 C         137.0599  143.4422  155.4945 C.ar    1  UNL1        0.1390
     22 CL        137.5215  144.7947  155.0386 Cl      1  UNL1       -0.0613
     23 C         137.5896  142.8600  156.7714 C.ar    1  UNL1        0.0390
@<TRIPOS>BOND
     1     1     2    1
     2     2     3   ar
     3     3     4   ar
     4     4    15    1
     5    15    16    3
     6    16    17    1
     7    17    18   ar
     8    18    19   ar
     9    19    20   ar
    10    20    21   ar
    11    21    22    1
    12    21    23   ar
    13     4     5   ar
    14     5     6    1
    15     5     7   ar
    16     7     8    1
    17     8     9   ar
    18     9    10   ar
    19    10    11   ar
    20    11    12    1
    21    11    13   ar
    22    13    14   ar
    23     7     2   ar
    24    14     8   ar
    25    23    17   ar
@<TRIPOS>MOLECULE
*****
 23 25 0 0 0
SMALL
GASTEIGER

@<TRIPOS>ATOM
      1 C         138.4867  145.0173  165.7184 C.3     1  UNL1        0.0722
      2 C         139.2148  144.5679  164.4863 C.ar    1  UNL1        0.1251
      3 N         139.1844  145.2447  163.1480 N.ar    1  UNL1       -0.2227
      4 C         140.0519  144.4579  162.2109 C.ar    1  UNL1        0.1360
      5 C         140.6185  143.2948  162.9700 C.ar    1  UNL1        0.0682
      6 C         141.5405  142.2476  162.4194 C.3     1  UNL1        0.0527
      7 N         140.1011  143.3627  164.3763 N.ar    1  UNL1       -0.2967
      8 C         140.4149  142.3955  165.4788 C.ar    1  UNL1        0.0649
      9 C         139.4622  141.2799  165.7918 C.ar    1  UNL1        0.0198
     10 C         139.7760  140.3127  166.8944 C.ar    1  UNL1        0.0311
     11 C         141.0427  140.4608  167.6841 C.ar    1  UNL1        0.1402
     12 F         141.3565  139.4935  168.7868 F       1  UNL1       -0.2042
     13 C         141.9955  141.5764  167.3713 C.ar    1  UNL1        0.0311
     14 C         141.6816  142.5436  166.2686 C.ar    1  UNL1        0.0198
     15 C         140.3080  144.7780  160.7679 C.1     1  UNL1       -0.0393
     16 C         140.5640  145.0980  159.3250 C.1     1  UNL1       -0.0581
     17 C         140.8200  145.4181  157.8821 C.ar    1  UNL1        0.0459
     18 C         141.9926  144.8062  157.1747 C.ar    1  UNL1        0.0290
     19 C         142.2486  145.1263  155.7318 C.ar    1  UNL1        0.1005
     20 N         141.3320  146.0584  154.9963 N.ar    1  UNL1       -0.2324
     21 C         140.1593  146.6704  155.7037 C.ar    1  UNL1        0.1390
     22 CL        139.2427  147.6025  154.9682 Cl      1  UNL1       -0.0613
     23 C         139.9034  146.3502  157.1466 C.ar    1  UNL1        0.0390
@<TRIPOS>BOND
     1     1     2    1
     2     2     3   ar
     3     3     4   ar
     4     4    15    1
     5    15    16    3
     6    16    17    1
     7    17    18   ar
     8    18    19   ar
     9    19    20   ar
    10    20    21   ar
    11    21    22    1
    12    21    23   ar
    13     4     5   ar
    14     5     6    1
    15     5     7   ar
    16     7     8    1
    17     8     9   ar
    18     9    10   ar
    19    10    11   ar
    20    11    12    1
    21    11    13   ar
    22    13    14   ar
    23     7     2   ar
    24    14     8   ar
    25    23    17   ar
@<TRIPOS>MOLECULE
*****
 23 25 0 0 0
SMALL
GASTEIGER

@<TRIPOS>ATOM
      1 C         142.8378  139.0419  166.8421 C.3     1  UNL1        0.0722
      2 C         141.8445  139.5499  165.8395 C.ar    1  UNL1        0.1251
      3 N         141.7901  139.1798  164.3868 N.ar    1  UNL1       -0.2227
      4 C         140.6431  139.9183  163.7630 C.ar    1  UNL1        0.1360
      5 C         139.9887  140.7448  164.8301 C.ar    1  UNL1        0.0682
      6 C         138.8005  141.6415  164.6461 C.3     1  UNL1        0.0527
      7 N         140.7312  140.5172  166.1134 N.ar    1  UNL1       -0.2967
      8 C         140.4158  141.1462  167.4380 C.ar    1  UNL1        0.0649
      9 C         139.7414  140.3413  168.5091 C.ar    1  UNL1        0.0198
     10 C         139.4259  140.9703  169.8337 C.ar    1  UNL1        0.0311
     11 C         139.7849  142.4045  170.0873 C.ar    1  UNL1        0.1402
     12 F         139.4695  143.0336  171.4120 F       1  UNL1       -0.2042
     13 C         140.4593  143.2096  169.0163 C.ar    1  UNL1        0.0311
     14 C         140.7747  142.5804  167.6916 C.ar    1  UNL1        0.0198
     15 C         140.2241  139.8434  162.3246 C.1     1  UNL1       -0.0393
     16 C         139.8052  139.7685  160.8863 C.1     1  UNL1       -0.0581
     17 C         139.3862  139.6936  159.4479 C.ar    1  UNL1        0.0459
     18 C         139.9754  138.6476  158.5486 C.ar    1  UNL1        0.0290
     19 C         139.5564  138.5727  157.1103 C.ar    1  UNL1        0.1005
     20 N         138.5483  139.5439  156.5713 N.ar    1  UNL1       -0.2324
     21 C         137.9591  140.5899  157.4705 C.ar    1  UNL1        0.1390
     22 CL        136.9510  141.5610  156.9315 Cl      1  UNL1       -0.0613
     23 C         138.3781  140.6647  158.9089 C.ar    1  UNL1        0.0390
@<TRIPOS>BOND
     1     1     2    1
     2     2     3   ar
     3     3     4   ar
     4     4    15    1
     5    15    16    3
     6    16    17    1
     7    17    18   ar
     8    18    19   ar
     9    19    20   ar
    10    20    21   ar
    11    21    22    1
    12    21    23   ar
    13     4     5   ar
    14     5     6    1
    15     5     7   ar
    16     7     8    1
    17     8     9   ar
    18     9    10   ar
    19    10    11   ar
    20    11    12    1
    21    11    13   ar
    22    13    14   ar
    23     7     2   ar
    24    14     8   ar
    25    23    17   ar
@<TRIPOS>MOLECULE
*****
 23 25 0 0 0
SMALL
GASTEIGER

@<TRIPOS>ATOM
      1 C         138.6311  144.3834  164.2822 C.3     1  UNL1        0.0722
      2 C         139.0642  143.8204  162.9611 C.ar    1  UNL1        0.1251
      3 N         138.1679  143.5060  161.8001 N.ar    1  UNL1       -0.2227
      4 C         139.0195  142.9641  160.6905 C.ar    1  UNL1        0.1360
      5 C         140.4421  142.9436  161.1656 C.ar    1  UNL1        0.0682
      6 C         141.6286  142.4760  160.3761 C.3     1  UNL1        0.0527
      7 N         140.4698  143.4728  162.5689 N.ar    1  UNL1       -0.2967
      8 C         141.6889  143.6273  163.4290 C.ar    1  UNL1        0.0649
      9 C         142.0340  142.5719  164.4375 C.ar    1  UNL1        0.0198
     10 C         143.2531  142.7263  165.2976 C.ar    1  UNL1        0.0311
     11 C         144.1272  143.9363  165.1492 C.ar    1  UNL1        0.1402
     12 F         145.3464  144.0908  166.0093 F       1  UNL1       -0.2042
     13 C         143.7822  144.9918  164.1407 C.ar    1  UNL1        0.0311
     14 C         142.5630  144.8372  163.2806 C.ar    1  UNL1        0.0198
     15 C         138.5336  142.5206  159.3424 C.1     1  UNL1       -0.0393
     16 C         138.0478  142.0772  157.9944 C.1     1  UNL1       -0.0581
     17 C         137.5620  141.6337  156.6462 C.ar    1  UNL1        0.0459
     18 C         138.4308  141.8189  155.4377 C.ar    1  UNL1        0.0290
     19 C         137.9450  141.3754  154.0896 C.ar    1  UNL1        0.1005
     20 N         136.5902  140.7467  153.9502 N.ar    1  UNL1       -0.2324
     21 C         135.7214  140.5615  155.1588 C.ar    1  UNL1        0.1390
     22 CL        134.3666  139.9329  155.0193 Cl      1  UNL1       -0.0613
     23 C         136.2072  141.0050  156.5068 C.ar    1  UNL1        0.0390
@<TRIPOS>BOND
     1     1     2    1
     2     2     3   ar
     3     3     4   ar
     4     4    15    1
     5    15    16    3
     6    16    17    1
     7    17    18   ar
     8    18    19   ar
     9    19    20   ar
    10    20    21   ar
    11    21    22    1
    12    21    23   ar
    13     4     5   ar
    14     5     6    1
    15     5     7   ar
    16     7     8    1
    17     8     9   ar
    18     9    10   ar
    19    10    11   ar
    20    11    12    1
    21    11    13   ar
    22    13    14   ar
    23     7     2   ar
    24    14     8   ar
    25    23    17   ar
@<TRIPOS>MOLECULE
*****
 23 25 0 0 0
SMALL
GASTEIGER

@<TRIPOS>ATOM
      1 C         137.3971  141.3835  162.8426 C.3     1  UNL1        0.0722
      2 C         138.5749  140.5369  162.4607 C.ar    1  UNL1        0.1251
      3 N         139.0365  140.2472  161.0631 N.ar    1  UNL1       -0.2227
      4 C         140.2449  139.3626  161.1480 C.ar    1  UNL1        0.1360
      5 C         140.5303  139.1055  162.5980 C.ar    1  UNL1        0.0682
      6 C         141.6509  138.2695  163.1412 C.3     1  UNL1        0.0527
      7 N         139.4982  139.8313  163.4093 N.ar    1  UNL1       -0.2967
      8 C         139.4057  139.8484  164.9062 C.ar    1  UNL1        0.0649
      9 C         140.3451  140.7014  165.7062 C.ar    1  UNL1        0.0198
     10 C         140.2526  140.7185  167.2031 C.ar    1  UNL1        0.0311
     11 C         139.2205  139.8826  167.9004 C.ar    1  UNL1        0.1402
     12 F         139.1279  139.8997  169.3974 F       1  UNL1       -0.2042
     13 C         138.2810  139.0295  167.1005 C.ar    1  UNL1        0.0311
     14 C         138.3736  139.0125  165.6035 C.ar    1  UNL1        0.0198
     15 C         141.0301  138.8288  159.9867 C.1     1  UNL1       -0.0393
     16 C         141.8152  138.2951  158.8254 C.1     1  UNL1       -0.0581
     17 C         142.6004  137.7613  157.6641 C.ar    1  UNL1        0.0459
     18 C         143.2156  138.7077  156.6762 C.ar    1  UNL1        0.0290
     19 C         144.0007  138.1738  155.5150 C.ar    1  UNL1        0.1005
     20 N         144.1707  136.6936  155.3416 N.ar    1  UNL1       -0.2324
     21 C         143.5555  135.7472  156.3294 C.ar    1  UNL1        0.1390
     22 CL        143.7255  134.2670  156.1560 Cl      1  UNL1       -0.0613
     23 C         142.7704  136.2811  157.4907 C.ar    1  UNL1        0.0390
@<TRIPOS>BOND
     1     1     2    1
     2     2     3   ar
     3     3     4   ar
     4     4    15    1
     5    15    16    3
     6    16    17    1
     7    17    18   ar
     8    18    19   ar
     9    19    20   ar
    10    20    21   ar
    11    21    22    1
    12    21    23   ar
    13     4     5   ar
    14     5     6    1
    15     5     7   ar
    16     7     8    1
    17     8     9   ar
    18     9    10   ar
    19    10    11   ar
    20    11    12    1
    21    11    13   ar
    22    13    14   ar
    23     7     2   ar
    24    14     8   ar
    25    23    17   ar
@<TRIPOS>MOLECULE
*****
 23 25 0 0 0
SMALL
GASTEIGER

@<TRIPOS>ATOM
      1 C         144.1104  144.2547  164.5153 C.3     1  UNL1        0.0722
      2 C         143.3204  143.7572  163.3414 C.ar    1  UNL1        0.1251
      3 N         142.7834  144.5968  162.2202 N.ar    1  UNL1       -0.2227
      4 C         142.0598  143.6911  161.2684 C.ar    1  UNL1        0.1360
      5 C         142.1495  142.2917  161.8011 C.ar    1  UNL1        0.0682
      6 C         141.5630  141.0667  161.1645 C.3     1  UNL1        0.0527
      7 N         142.9286  142.3326  163.0823 N.ar    1  UNL1       -0.2967
      8 C         143.2580  141.1555  163.9517 C.ar    1  UNL1        0.0649
      9 C         144.5230  140.3832  163.7208 C.ar    1  UNL1        0.0198
     10 C         144.8524  139.2061  164.5902 C.ar    1  UNL1        0.0311
     11 C         143.9169  138.8013  165.6906 C.ar    1  UNL1        0.1402
     12 F         144.2464  137.6242  166.5600 F       1  UNL1       -0.2042
     13 C         142.6518  139.5736  165.9215 C.ar    1  UNL1        0.0311
     14 C         142.3225  140.7507  165.0521 C.ar    1  UNL1        0.0198
     15 C         141.3679  144.1111  160.0055 C.1     1  UNL1       -0.0393
     16 C         140.6760  144.5310  158.7426 C.1     1  UNL1       -0.0581
     17 C         139.9841  144.9510  157.4796 C.ar    1  UNL1        0.0459
     18 C         139.3764  143.9176  156.5781 C.ar    1  UNL1        0.0290
     19 C         138.6845  144.3376  155.3153 C.ar    1  UNL1        0.1005
     20 N         138.6004  145.7910  154.9539 N.ar    1  UNL1       -0.2324
     21 C         139.2081  146.8244  155.8554 C.ar    1  UNL1        0.1390
     22 CL        139.1240  148.2778  155.4940 Cl      1  UNL1       -0.0613
     23 C         139.9000  146.4044  157.1183 C.ar    1  UNL1        0.0390
@<TRIPOS>BOND
     1     1     2    1
     2     2     3   ar
     3     3     4   ar
     4     4    15    1
     5    15    16    3
     6    16    17    1
     7    17    18   ar
     8    18    19   ar
     9    19    20   ar
    10    20    21   ar
    11    21    22    1
    12    21    23   ar
    13     4     5   ar
    14     5     6    1
    15     5     7   ar
    16     7     8    1
    17     8     9   ar
    18     9    10   ar
    19    10    11   ar
    20    11    12    1
    21    11    13   ar
    22    13    14   ar
    23     7     2   ar
    24    14     8   ar
    25    23    17   ar
@<TRIPOS>MOLECULE
*****
 23 25 0 0 0
SMALL
GASTEIGER

@<TRIPOS>ATOM
      1 C         137.9226  138.4390  166.5337 C.3     1  UNL1        0.0722
      2 C         138.6111  139.4612  165.6787 C.ar    1  UNL1        0.1251
      3 N         138.2634  139.8028  164.2600 N.ar    1  UNL1       -0.2227
      4 C         139.2057  140.8740  163.7969 C.ar    1  UNL1        0.1360
      5 C         140.1358  141.1945  164.9292 C.ar    1  UNL1        0.0682
      6 C         141.2396  142.2098  164.9030 C.3     1  UNL1        0.0527
      7 N         139.7684  140.3214  166.0922 N.ar    1  UNL1       -0.2967
      8 C         140.4402  140.3103  167.4332 C.ar    1  UNL1        0.0649
      9 C         141.8303  139.7637  167.5713 C.ar    1  UNL1        0.0198
     10 C         142.5021  139.7526  168.9123 C.ar    1  UNL1        0.0311
     11 C         141.7839  140.2882  170.1154 C.ar    1  UNL1        0.1402
     12 F         142.4558  140.2772  171.4565 F       1  UNL1       -0.2042
     13 C         140.3939  140.8349  169.9774 C.ar    1  UNL1        0.0311
     14 C         139.7221  140.8459  168.6363 C.ar    1  UNL1        0.0198
     15 C         139.2160  141.5126  162.4396 C.1     1  UNL1       -0.0393
     16 C         139.2263  142.1512  161.0824 C.1     1  UNL1       -0.0581
     17 C         139.2366  142.7898  159.7251 C.ar    1  UNL1        0.0459
     18 C         138.3561  142.2518  158.6364 C.ar    1  UNL1        0.0290
     19 C         138.3665  142.8904  157.2792 C.ar    1  UNL1        0.1005
     20 N         139.2573  144.0670  157.0107 N.ar    1  UNL1       -0.2324
     21 C         140.1377  144.6050  158.0994 C.ar    1  UNL1        0.1390
     22 CL        141.0286  145.7816  157.8309 Cl      1  UNL1       -0.0613
     23 C         140.1274  143.9664  159.4566 C.ar    1  UNL1        0.0390
@<TRIPOS>BOND
     1     1     2    1
     2     2     3   ar
     3     3     4   ar
     4     4    15    1
     5    15    16    3
     6    16    17    1
     7    17    18   ar
     8    18    19   ar
     9    19    20   ar
    10    20    21   ar
    11    21    22    1
    12    21    23   ar
    13     4     5   ar
    14     5     6    1
    15     5     7   ar
    16     7     8    1
    17     8     9   ar
    18     9    10   ar
    19    10    11   ar
    20    11    12    1
    21    11    13   ar
    22    13    14   ar
    23     7     2   ar
    24    14     8   ar
    25    23    17   ar
@<TRIPOS>MOLECULE
*****
 23 25 0 0 0
SMALL
GASTEIGER

@<TRIPOS>ATOM
      1 C         145.5916  140.6103  154.1063 C.3     1  UNL1        0.0722
      2 C         145.7976  141.3024  155.4210 C.ar    1  UNL1        0.1251
      3 N         144.8168  141.3512  156.5550 N.ar    1  UNL1       -0.2227
      4 C         145.4337  142.1462  157.6674 C.ar    1  UNL1        0.1360
      5 C         146.7957  142.5887  157.2211 C.ar    1  UNL1        0.0682
      6 C         147.7628  143.4086  158.0224 C.3     1  UNL1        0.0527
      7 N         147.0206  142.0672  155.8328 N.ar    1  UNL1       -0.2967
      8 C         148.2522  142.2741  155.0020 C.ar    1  UNL1        0.0649
      9 C         148.2175  143.2083  153.8290 C.ar    1  UNL1        0.0198
     10 C         149.4491  143.4153  152.9982 C.ar    1  UNL1        0.0311
     11 C         150.7156  142.6880  153.3405 C.ar    1  UNL1        0.1402
     12 F         151.9472  142.8949  152.5097 F       1  UNL1       -0.2042
     13 C         150.7504  141.7537  154.5136 C.ar    1  UNL1        0.0311
     14 C         149.5187  141.5468  155.3443 C.ar    1  UNL1        0.0198
     15 C         144.7998  142.4460  158.9935 C.1     1  UNL1       -0.0393
     16 C         144.1659  142.7459  160.3194 C.1     1  UNL1       -0.0581
     17 C         143.5320  143.0457  161.6455 C.ar    1  UNL1        0.0459
     18 C         142.0411  143.1710  161.7529 C.ar    1  UNL1        0.0290
     19 C         141.4073  143.4708  163.0789 C.ar    1  UNL1        0.1005
     20 N         142.2643  143.6454  164.2975 N.ar    1  UNL1       -0.2324
     21 C         143.7552  143.5201  164.1901 C.ar    1  UNL1        0.1390
     22 CL        144.6122  143.6946  165.4087 Cl      1  UNL1       -0.0613
     23 C         144.3890  143.2203  162.8641 C.ar    1  UNL1        0.0390
@<TRIPOS>BOND
     1     1     2    1
     2     2     3   ar
     3     3     4   ar
     4     4    15    1
     5    15    16    3
     6    16    17    1
     7    17    18   ar
     8    18    19   ar
     9    19    20   ar
    10    20    21   ar
    11    21    22    1
    12    21    23   ar
    13     4     5   ar
    14     5     6    1
    15     5     7   ar
    16     7     8    1
    17     8     9   ar
    18     9    10   ar
    19    10    11   ar
    20    11    12    1
    21    11    13   ar
    22    13    14   ar
    23     7     2   ar
    24    14     8   ar
    25    23    17   ar
@<TRIPOS>MOLECULE
*****
 23 25 0 0 0
SMALL
GASTEIGER

@<TRIPOS>ATOM
      1 C         144.0936  143.9037  164.4647 C.3     1  UNL1        0.0722
      2 C         143.0316  143.8900  163.4055 C.ar    1  UNL1        0.1251
      3 N         143.0904  144.6057  162.0886 N.ar    1  UNL1       -0.2227
      4 C         141.8194  144.3161  161.3465 C.ar    1  UNL1        0.1360
      5 C         140.9750  143.4215  162.2047 C.ar    1  UNL1        0.0682
      6 C         139.6196  142.8845  161.8522 C.3     1  UNL1        0.0527
      7 N         141.7241  143.1581  163.4773 N.ar    1  UNL1       -0.2967
      8 C         141.2493  142.3114  164.6207 C.ar    1  UNL1        0.0649
      9 C         141.3840  140.8189  164.5556 C.ar    1  UNL1        0.0198
     10 C         140.9092  139.9723  165.6990 C.ar    1  UNL1        0.0311
     11 C         140.2995  140.6181  166.9078 C.ar    1  UNL1        0.1402
     12 F         139.8246  139.7715  168.0514 F       1  UNL1       -0.2042
     13 C         140.1647  142.1107  166.9731 C.ar    1  UNL1        0.0311
     14 C         140.6396  142.9573  165.8295 C.ar    1  UNL1        0.0198
     15 C         141.4565  144.8309  159.9851 C.1     1  UNL1       -0.0393
     16 C         141.0937  145.3457  158.6237 C.1     1  UNL1       -0.0581
     17 C         140.7308  145.8605  157.2623 C.ar    1  UNL1        0.0459
     18 C         139.5542  146.7758  157.0956 C.ar    1  UNL1        0.0290
     19 C         139.1914  147.2905  155.7343 C.ar    1  UNL1        0.1005
     20 N         140.0051  146.8899  154.5396 N.ar    1  UNL1       -0.2324
     21 C         141.1817  145.9746  154.7062 C.ar    1  UNL1        0.1390
     22 CL        141.9955  145.5740  153.5115 Cl      1  UNL1       -0.0613
     23 C         141.5445  145.4599  156.0676 C.ar    1  UNL1        0.0390
@<TRIPOS>BOND
     1     1     2    1
     2     2     3   ar
     3     3     4   ar
     4     4    15    1
     5    15    16    3
     6    16    17    1
     7    17    18   ar
     8    18    19   ar
     9    19    20   ar
    10    20    21   ar
    11    21    22    1
    12    21    23   ar
    13     4     5   ar
    14     5     6    1
    15     5     7   ar
    16     7     8    1
    17     8     9   ar
    18     9    10   ar
    19    10    11   ar
    20    11    12    1
    21    11    13   ar
    22    13    14   ar
    23     7     2   ar
    24    14     8   ar
    25    23    17   ar
