@<TRIPOS>MOLECULE
*****
 19 22 0 0 0
SMALL
GASTEIGER

@<TRIPOS>ATOM
      1 CL        137.3426  139.9730  160.4519 Cl      1  UNL1       -0.0805
      2 C         137.8609  139.4982  161.7770 C.ar    1  UNL1        0.0799
      3 C         138.2682  138.0654  161.9533 C.ar    1  UNL1        0.1121
      4 N         138.7864  137.5907  163.2785 N.ar    1  UNL1       -0.2215
      5 C         138.8973  138.5487  164.4273 C.ar    1  UNL1        0.2016
      6 N         139.3686  138.3714  165.8403 N.ar    1  UNL1       -0.1754
      7 C         139.2526  139.6946  166.5372 C.ar    1  UNL1        0.2938
      8 O         138.7095  140.6897  165.5550 O.2     1  UNL1       -0.4221
      9 C         138.4900  139.9815  164.2510 C.ar    1  UNL1        0.1849
     10 C         137.9718  140.4563  162.9258 C.ar    1  UNL1        0.0537
     11 N         139.7853  140.1038  168.6322 N.pl3   1  UNL1       -0.2637
     12 C         139.0990  140.2006  169.1944 C.3     1  UNL1        0.1123
     13 C         139.0650  140.3516  169.9862 C.3     1  UNL1        0.0939
     14 N         139.8378  140.5469  170.9436 N.3     1  UNL1       -0.2711
     15 C         140.1334  140.4070  170.1881 C.3     1  UNL1        0.0738
     16 C         140.6971  140.1836  168.9748 C.3     1  UNL1        0.0372
     17 C         141.0844  140.0530  168.2601 C.3     1  UNL1        0.0798
     18 C         141.9542  140.2958  169.4578 C.3     1  UNL1        0.0372
     19 C         141.3309  140.5428  170.7995 C.3     1  UNL1        0.0738
@<TRIPOS>BOND
     1     1     2    1
     2     2     3   ar
     3     3     4   ar
     4     4     5   ar
     5     5     6   ar
     6     6     7   ar
     7     7    11    1
     8    11    12    1
     9    12    13    1
    10    13    14    1
    11    14    15    1
    12    15    16    1
    13    16    17    1
    14    17    18    1
    15    18    19    1
    16     7     8   ar
    17     8     9   ar
    18     9    10   ar
    19    10     2   ar
    20     9     5   ar
    21    17    11    1
    22    19    14    1
@<TRIPOS>MOLECULE
*****
 19 22 0 0 0
SMALL
GASTEIGER

@<TRIPOS>ATOM
      1 CL        143.9473  137.8326  161.4673 Cl      1  UNL1       -0.0805
      2 C         142.8656  138.1674  162.4510 C.ar    1  UNL1        0.0799
      3 C         141.4454  137.7784  162.1654 C.ar    1  UNL1        0.1121
      4 N         140.3637  138.1132  163.1492 N.ar    1  UNL1       -0.2215
      5 C         140.7022  138.8371  164.4186 C.ar    1  UNL1        0.2016
      6 N         139.8553  139.2982  165.5675 N.ar    1  UNL1       -0.1754
      7 C         140.7522  139.9723  166.5633 C.ar    1  UNL1        0.2938
      8 O         142.1533  139.9277  166.0297 O.2     1  UNL1       -0.4221
      9 C         142.1225  139.2261  164.7042 C.ar    1  UNL1        0.1849
     10 C         143.2041  138.8913  163.7204 C.ar    1  UNL1        0.0537
     11 N         140.1228  140.8688  168.4712 N.pl3   1  UNL1       -0.2637
     12 C         139.6766  140.3288  169.0243 C.3     1  UNL1        0.1123
     13 C         139.3601  140.4461  169.7570 C.3     1  UNL1        0.0939
     14 N         139.2495  141.3541  170.6028 N.3     1  UNL1       -0.2711
     15 C         139.6396  141.4898  169.8906 C.3     1  UNL1        0.0738
     16 C         140.2957  141.7916  168.7425 C.3     1  UNL1        0.0372
     17 C         140.7007  142.0214  168.0635 C.3     1  UNL1        0.0798
     18 C         140.5299  143.0659  169.1264 C.3     1  UNL1        0.0372
     19 C         139.8043  142.7323  170.3960 C.3     1  UNL1        0.0738
@<TRIPOS>BOND
     1     1     2    1
     2     2     3   ar
     3     3     4   ar
     4     4     5   ar
     5     5     6   ar
     6     6     7   ar
     7     7    11    1
     8    11    12    1
     9    12    13    1
    10    13    14    1
    11    14    15    1
    12    15    16    1
    13    16    17    1
    14    17    18    1
    15    18    19    1
    16     7     8   ar
    17     8     9   ar
    18     9    10   ar
    19    10     2   ar
    20     9     5   ar
    21    17    11    1
    22    19    14    1
@<TRIPOS>MOLECULE
*****
 19 22 0 0 0
SMALL
GASTEIGER

@<TRIPOS>ATOM
      1 CL        137.7250  138.7914  161.4246 Cl      1  UNL1       -0.0805
      2 C         138.3855  138.8958  162.7673 C.ar    1  UNL1        0.0799
      3 C         138.8517  137.6565  163.4721 C.ar    1  UNL1        0.1121
      4 N         139.5122  137.7608  164.8148 N.ar    1  UNL1       -0.2215
      5 C         139.7065  139.1044  165.4527 C.ar    1  UNL1        0.2016
      6 N         140.3199  139.5166  166.7580 N.ar    1  UNL1       -0.1754
      7 C         140.2328  141.0106  166.8600 C.ar    1  UNL1        0.2938
      8 O         139.5655  141.5218  165.6176 O.2     1  UNL1       -0.4221
      9 C         139.2402  140.3437  164.7479 C.ar    1  UNL1        0.1849
     10 C         138.5797  140.2394  163.4052 C.ar    1  UNL1        0.0537
     11 N         140.9566  142.2367  168.5371 N.pl3   1  UNL1       -0.2637
     12 C         140.3509  142.7726  168.9147 C.3     1  UNL1        0.1123
     13 C         140.3975  143.2946  169.5279 C.3     1  UNL1        0.0939
     14 N         141.2389  143.7230  170.3408 N.3     1  UNL1       -0.2711
     15 C         141.4483  143.1592  169.7786 C.3     1  UNL1        0.0738
     16 C         141.8704  142.2316  168.8835 C.3     1  UNL1        0.0372
     17 C         142.1724  141.6714  168.3612 C.3     1  UNL1        0.0798
     18 C         143.1314  142.2314  169.3695 C.3     1  UNL1        0.0372
     19 C         142.6646  143.2572  170.3593 C.3     1  UNL1        0.0738
@<TRIPOS>BOND
     1     1     2    1
     2     2     3   ar
     3     3     4   ar
     4     4     5   ar
     5     5     6   ar
     6     6     7   ar
     7     7    11    1
     8    11    12    1
     9    12    13    1
    10    13    14    1
    11    14    15    1
    12    15    16    1
    13    16    17    1
    14    17    18    1
    15    18    19    1
    16     7     8   ar
    17     8     9   ar
    18     9    10   ar
    19    10     2   ar
    20     9     5   ar
    21    17    11    1
    22    19    14    1
@<TRIPOS>MOLECULE
*****
 19 22 0 0 0
SMALL
GASTEIGER

@<TRIPOS>ATOM
      1 CL        139.6028  146.1411  161.7785 Cl      1  UNL1       -0.0805
      2 C         139.4267  144.9184  162.6294 C.ar    1  UNL1        0.0799
      3 C         138.4989  143.8253  162.1888 C.ar    1  UNL1        0.1121
      4 N         138.3227  142.6026  163.0396 N.ar    1  UNL1       -0.2215
      5 C         139.0745  142.4731  164.3312 C.ar    1  UNL1        0.2016
      6 N         139.1039  141.3928  165.3714 N.ar    1  UNL1       -0.1754
      7 C         140.0499  141.8182  166.4549 C.ar    1  UNL1        0.2938
      8 O         140.6052  143.1615  166.0844 O.2     1  UNL1       -0.4221
      9 C         140.0023  143.5662  164.7718 C.ar    1  UNL1        0.1849
     10 C         140.1784  144.7888  163.9209 C.ar    1  UNL1        0.0537
     11 N         140.5373  140.6731  168.2691 N.pl3   1  UNL1       -0.2637
     12 C         139.8951  140.6360  168.8878 C.3     1  UNL1        0.1123
     13 C         139.8600  140.2799  169.6108 C.3     1  UNL1        0.0939
     14 N         140.5762  139.5841  170.3559 N.3     1  UNL1       -0.2711
     15 C         140.8550  139.8381  169.6241 C.3     1  UNL1        0.0738
     16 C         141.3857  140.2172  168.4348 C.3     1  UNL1        0.0372
     17 C         141.7499  140.4224  167.7254 C.3     1  UNL1        0.0798
     18 C         142.5554  139.5836  168.6728 C.3     1  UNL1        0.0372
     19 C         141.9685  139.1644  169.9880 C.3     1  UNL1        0.0738
@<TRIPOS>BOND
     1     1     2    1
     2     2     3   ar
     3     3     4   ar
     4     4     5   ar
     5     5     6   ar
     6     6     7   ar
     7     7    11    1
     8    11    12    1
     9    12    13    1
    10    13    14    1
    11    14    15    1
    12    15    16    1
    13    16    17    1
    14    17    18    1
    15    18    19    1
    16     7     8   ar
    17     8     9   ar
    18     9    10   ar
    19    10     2   ar
    20     9     5   ar
    21    17    11    1
    22    19    14    1
@<TRIPOS>MOLECULE
*****
 19 22 0 0 0
SMALL
GASTEIGER

@<TRIPOS>ATOM
      1 CL        142.2113  142.1260  171.0487 Cl      1  UNL1       -0.0805
      2 C         141.2728  141.3935  170.1362 C.ar    1  UNL1        0.0799
      3 C         140.1179  140.6256  170.7076 C.ar    1  UNL1        0.1121
      4 N         139.1794  139.8931  169.7951 N.ar    1  UNL1       -0.2215
      5 C         139.3958  139.9284  168.3113 C.ar    1  UNL1        0.2016
      6 N         138.6424  139.3083  167.1720 N.ar    1  UNL1       -0.1754
      7 C         139.3317  139.6930  165.8965 C.ar    1  UNL1        0.2938
      8 O         140.5111  140.5508  166.2474 O.2     1  UNL1       -0.4221
      9 C         140.5507  140.6963  167.7399 C.ar    1  UNL1        0.1849
     10 C         141.4892  141.4288  168.6523 C.ar    1  UNL1        0.0537
     11 N         138.7202  139.1026  163.8673 N.pl3   1  UNL1       -0.2637
     12 C         138.9042  138.2602  163.6371 C.3     1  UNL1        0.1123
     13 C         138.7718  137.8430  162.9594 C.3     1  UNL1        0.0939
     14 N         138.2702  138.0098  161.8313 N.3     1  UNL1       -0.2711
     15 C         138.2860  138.6250  162.3782 C.3     1  UNL1        0.0738
     16 C         138.2741  139.6863  163.2227 C.3     1  UNL1        0.0372
     17 C         138.2438  140.3571  163.6992 C.3     1  UNL1        0.0798
     18 C         137.6570  140.4857  162.3248 C.3     1  UNL1        0.0372
     19 C         137.6702  139.3121  161.3909 C.3     1  UNL1        0.0738
@<TRIPOS>BOND
     1     1     2    1
     2     2     3   ar
     3     3     4   ar
     4     4     5   ar
     5     5     6   ar
     6     6     7   ar
     7     7    11    1
     8    11    12    1
     9    12    13    1
    10    13    14    1
    11    14    15    1
    12    15    16    1
    13    16    17    1
    14    17    18    1
    15    18    19    1
    16     7     8   ar
    17     8     9   ar
    18     9    10   ar
    19    10     2   ar
    20     9     5   ar
    21    17    11    1
    22    19    14    1
@<TRIPOS>MOLECULE
*****
 19 22 0 0 0
SMALL
GASTEIGER

@<TRIPOS>ATOM
      1 CL        143.8974  137.7901  161.3393 Cl      1  UNL1       -0.0805
      2 C         143.8786  138.9464  162.2947 C.ar    1  UNL1        0.0799
      3 C         144.4752  140.2622  161.8915 C.ar    1  UNL1        0.1121
      4 N         144.4564  141.4185  162.8468 N.ar    1  UNL1       -0.2215
      5 C         143.8410  141.2589  164.2054 C.ar    1  UNL1        0.2016
      6 N         143.6771  142.2128  165.3514 N.ar    1  UNL1       -0.1754
      7 C         142.9792  141.4864  166.4629 C.ar    1  UNL1        0.2938
      8 O         142.7118  140.0837  166.0039 O.2     1  UNL1       -0.4221
      9 C         143.2444  139.9431  164.6087 C.ar    1  UNL1        0.1849
     10 C         143.2633  138.7868  163.6533 C.ar    1  UNL1        0.0537
     11 N         142.4422  142.3304  168.4224 N.pl3   1  UNL1       -0.2637
     12 C         143.0914  142.3309  169.0349 C.3     1  UNL1        0.1123
     13 C         143.1135  142.5857  169.8000 C.3     1  UNL1        0.0939
     14 N         142.3618  143.1157  170.6402 N.3     1  UNL1       -0.2711
     15 C         142.0889  142.9443  169.8826 C.3     1  UNL1        0.0738
     16 C         141.5656  142.6932  168.6567 C.3     1  UNL1        0.0372
     17 C         141.2044  142.5605  167.9288 C.3     1  UNL1        0.0798
     18 C         140.3567  143.1970  168.9900 C.3     1  UNL1        0.0372
     19 C         140.9354  143.4747  170.3457 C.3     1  UNL1        0.0738
@<TRIPOS>BOND
     1     1     2    1
     2     2     3   ar
     3     3     4   ar
     4     4     5   ar
     5     5     6   ar
     6     6     7   ar
     7     7    11    1
     8    11    12    1
     9    12    13    1
    10    13    14    1
    11    14    15    1
    12    15    16    1
    13    16    17    1
    14    17    18    1
    15    18    19    1
    16     7     8   ar
    17     8     9   ar
    18     9    10   ar
    19    10     2   ar
    20     9     5   ar
    21    17    11    1
    22    19    14    1
@<TRIPOS>MOLECULE
*****
 19 22 0 0 0
SMALL
GASTEIGER

@<TRIPOS>ATOM
      1 CL        139.7071  146.4154  161.5524 Cl      1  UNL1       -0.0805
      2 C         140.2741  145.4354  162.5363 C.ar    1  UNL1        0.0799
      3 C         141.6331  144.8434  162.3069 C.ar    1  UNL1        0.1121
      4 N         142.2000  143.8633  163.2908 N.ar    1  UNL1       -0.2215
      5 C         141.4080  143.4753  164.5041 C.ar    1  UNL1        0.2016
      6 N         141.7044  142.5412  165.6397 N.ar    1  UNL1       -0.1754
      7 C         140.5285  142.5558  166.5709 C.ar    1  UNL1        0.2938
      8 O         139.5054  143.4990  166.0109 O.2     1  UNL1       -0.4221
      9 C         140.0490  144.0673  164.7335 C.ar    1  UNL1        0.1849
     10 C         139.4821  145.0473  163.7496 C.ar    1  UNL1        0.0537
     11 N         140.3379  141.3974  168.4315 N.pl3   1  UNL1       -0.2637
     12 C         139.9204  140.6120  168.3576 C.3     1  UNL1        0.1123
     13 C         139.7445  140.0395  168.8981 C.3     1  UNL1        0.0939
     14 N         139.8912  139.8129  170.1144 N.3     1  UNL1       -0.2711
     15 C         140.1754  140.5098  169.7805 C.3     1  UNL1        0.0738
     16 C         140.6710  141.6797  169.3058 C.3     1  UNL1        0.0372
     17 C         140.9875  142.4005  169.0645 C.3     1  UNL1        0.0798
     18 C         141.1282  142.0615  170.5188 C.3     1  UNL1        0.0372
     19 C         140.5800  140.7677  171.0438 C.3     1  UNL1        0.0738
@<TRIPOS>BOND
     1     1     2    1
     2     2     3   ar
     3     3     4   ar
     4     4     5   ar
     5     5     6   ar
     6     6     7   ar
     7     7    11    1
     8    11    12    1
     9    12    13    1
    10    13    14    1
    11    14    15    1
    12    15    16    1
    13    16    17    1
    14    17    18    1
    15    18    19    1
    16     7     8   ar
    17     8     9   ar
    18     9    10   ar
    19    10     2   ar
    20     9     5   ar
    21    17    11    1
    22    19    14    1
@<TRIPOS>MOLECULE
*****
 19 22 0 0 0
SMALL
GASTEIGER

@<TRIPOS>ATOM
      1 CL        142.9100  138.2883  170.0467 Cl      1  UNL1       -0.0805
      2 C         142.2425  139.5189  169.5080 C.ar    1  UNL1        0.0799
      3 C         141.8397  140.6227  170.4402 C.ar    1  UNL1        0.1121
      4 N         141.1722  141.8533  169.9015 N.ar    1  UNL1       -0.2215
      5 C         140.9076  141.9800  168.4305 C.ar    1  UNL1        0.2016
      6 N         140.2714  143.0663  167.6150 N.ar    1  UNL1       -0.1754
      7 C         140.2810  142.6339  166.1787 C.ar    1  UNL1        0.2938
      8 O         140.9232  141.2802  166.1065 O.2     1  UNL1       -0.4221
      9 C         141.3105  140.8761  167.4982 C.ar    1  UNL1        0.1849
     10 C         141.9780  139.6456  168.0370 C.ar    1  UNL1        0.0537
     11 N         139.4918  143.7832  164.4769 N.pl3   1  UNL1       -0.2637
     12 C         138.6273  143.6588  164.2932 C.3     1  UNL1        0.1123
     13 C         138.1438  143.9703  163.7275 C.3     1  UNL1        0.0939
     14 N         138.1997  144.7719  162.7754 N.3     1  UNL1       -0.2711
     15 C         138.8682  144.6119  163.2286 C.3     1  UNL1        0.0738
     16 C         140.0117  144.4016  163.9270 C.3     1  UNL1        0.0372
     17 C         140.7288  144.3066  164.3202 C.3     1  UNL1        0.0798
     18 C         140.7224  145.2586  163.1611 C.3     1  UNL1        0.0372
     19 C         139.4578  145.4913  162.3887 C.3     1  UNL1        0.0738
@<TRIPOS>BOND
     1     1     2    1
     2     2     3   ar
     3     3     4   ar
     4     4     5   ar
     5     5     6   ar
     6     6     7   ar
     7     7    11    1
     8    11    12    1
     9    12    13    1
    10    13    14    1
    11    14    15    1
    12    15    16    1
    13    16    17    1
    14    17    18    1
    15    18    19    1
    16     7     8   ar
    17     8     9   ar
    18     9    10   ar
    19    10     2   ar
    20     9     5   ar
    21    17    11    1
    22    19    14    1
@<TRIPOS>MOLECULE
*****
 19 22 0 0 0
SMALL
GASTEIGER

@<TRIPOS>ATOM
      1 CL        138.1771  140.0409  170.2071 Cl      1  UNL1       -0.0805
      2 C         139.4005  140.6284  169.5683 C.ar    1  UNL1        0.0799
      3 C         140.2863  141.5508  170.3522 C.ar    1  UNL1        0.1121
      4 N         141.5098  142.1384  169.7135 N.ar    1  UNL1       -0.2215
      5 C         141.8474  141.8035  168.2909 C.ar    1  UNL1        0.2016
      6 N         142.9783  142.2273  167.4013 N.ar    1  UNL1       -0.1754
      7 C         142.7915  141.5668  166.0675 C.ar    1  UNL1        0.2938
      8 O         141.5451  140.7348  166.1329 O.2     1  UNL1       -0.4221
      9 C         140.9616  140.8811  167.5070 C.ar    1  UNL1        0.1849
     10 C         139.7382  140.2936  168.1458 C.ar    1  UNL1        0.0537
     11 N         144.1134  141.7808  164.3220 N.pl3   1  UNL1       -0.2637
     12 C         144.8839  141.3321  164.3625 C.3     1  UNL1        0.1123
     13 C         145.5014  141.2694  163.8472 C.3     1  UNL1        0.0939
     14 N         145.8403  141.6902  162.7246 N.3     1  UNL1       -0.2711
     15 C         145.1190  141.9107  163.0548 C.3     1  UNL1        0.0738
     16 C         143.9163  142.3190  163.5305 C.3     1  UNL1        0.0372
     17 C         143.1800  142.5933  163.7767 C.3     1  UNL1        0.0798
     18 C         143.6525  143.0605  162.4320 C.3     1  UNL1        0.0372
     19 C         144.9826  142.6090  161.9059 C.3     1  UNL1        0.0738
@<TRIPOS>BOND
     1     1     2    1
     2     2     3   ar
     3     3     4   ar
     4     4     5   ar
     5     5     6   ar
     6     6     7   ar
     7     7    11    1
     8    11    12    1
     9    12    13    1
    10    13    14    1
    11    14    15    1
    12    15    16    1
    13    16    17    1
    14    17    18    1
    15    18    19    1
    16     7     8   ar
    17     8     9   ar
    18     9    10   ar
    19    10     2   ar
    20     9     5   ar
    21    17    11    1
    22    19    14    1
