@<TRIPOS>MOLECULE
*****
 30 33 0 0 0
SMALL
GASTEIGER

@<TRIPOS>ATOM
      1 C         140.9859  142.6591  166.0537 C.3     1  UNL1        0.0678
      2 C         142.2720  141.8961  165.9365 C.3     1  UNL1        0.0177
      3 C         141.8448  142.8194  164.8344 C.3     1  UNL1        0.0845
      4 C         140.5172  142.1753  167.3939 C.ar    1  UNL1       -0.0188
      5 C         140.5320  143.1024  168.5731 C.ar    1  UNL1       -0.0042
      6 C         140.0633  142.6187  169.9134 C.ar    1  UNL1       -0.0003
      7 C         139.5797  141.2079  170.0745 C.ar    1  UNL1       -0.0000
      8 C         139.5649  140.2809  168.8953 C.ar    1  UNL1       -0.0003
      9 C         140.0336  140.7646  167.5550 C.ar    1  UNL1       -0.0042
     10 C         142.0940  143.4452  163.4941 C.2     1  UNL1        0.2271
     11 O         143.0134  144.6245  163.3762 O.2     1  UNL1       -0.2747
     12 N         141.4236  142.8917  162.2717 N.am    1  UNL1       -0.2693
     13 H         140.8202  142.1177  162.3491 H       1  UNL1        0.1563
     14 C         141.6728  143.5174  160.9314 C.ar    1  UNL1        0.1343
     15 C         140.8752  144.7130  160.5019 C.ar    1  UNL1        0.0368
     16 C         141.1244  145.3387  159.1616 C.ar    1  UNL1        0.0341
     17 C         142.1711  144.7688  158.2508 C.ar    1  UNL1        0.1593
     18 F         142.4202  145.3944  156.9105 F       1  UNL1       -0.2025
     19 C         142.9686  143.5731  158.6803 C.ar    1  UNL1        0.1298
     20 N         142.7194  142.9475  160.0205 N.ar    1  UNL1       -0.2267
     21 C         139.8626  143.5901  165.7053 C.3     1  UNL1        0.2098
     22 O         138.4915  143.0439  165.4375 O.3     1  UNL1       -0.4723
     23 C         137.4712  139.7856  160.5036 C.3     1  UNL1        0.0736
     24 C         137.7262  140.6002  161.7371 C.ar    1  UNL1        0.1394
     25 N         138.0203  139.9169  163.0396 N.ar    1  UNL1       -0.2260
     26 C         138.2754  140.7315  164.2731 C.ar    1  UNL1        0.1382
     27 C         138.2364  142.2293  164.2040 C.ar    1  UNL1        0.1711
     28 C         137.9423  142.9126  162.9015 C.ar    1  UNL1        0.0960
     29 C         137.9033  144.4106  162.8324 C.3     1  UNL1        0.0555
     30 N         137.6872  142.0981  161.6681 N.ar    1  UNL1       -0.2319
@<TRIPOS>BOND
     1    23    24    1
     2    24    25   ar
     3    25    26   ar
     4    26    27   ar
     5    27    22    1
     6    22    21    1
     7     1    21    1
     8     1     4    1
     9     4     5   ar
    10     5     6   ar
    11     6     7   ar
    12     7     8   ar
    13     8     9   ar
    14     1     2    1
    15     2     3    1
    16     3    10    1
    17    10    11    2
    18    10    12   am
    19    12    14    1
    20    14    15   ar
    21    15    16   ar
    22    16    17   ar
    23    17    18    1
    24    17    19   ar
    25    19    20   ar
    26    27    28   ar
    27    28    29    1
    28    28    30   ar
    29    30    24   ar
    30     3     1    1
    31    20    14   ar
    32     9     4   ar
    33    12    13    1
@<TRIPOS>MOLECULE
*****
 30 33 0 0 0
SMALL
GASTEIGER

@<TRIPOS>ATOM
      1 C         140.7098  141.8066  166.3351 C.3     1  UNL1        0.0678
      2 C         139.7969  140.7190  166.8185 C.3     1  UNL1        0.0177
      3 C         139.8903  141.0234  165.3528 C.3     1  UNL1        0.0845
      4 C         141.2812  142.2676  167.6432 C.ar    1  UNL1       -0.0188
      5 C         142.6957  141.9250  168.0061 C.ar    1  UNL1       -0.0042
      6 C         143.2671  142.3860  169.3142 C.ar    1  UNL1       -0.0003
      7 C         142.4239  143.1897  170.2592 C.ar    1  UNL1       -0.0000
      8 C         141.0094  143.5324  169.8962 C.ar    1  UNL1       -0.0003
      9 C         140.4381  143.0713  168.5882 C.ar    1  UNL1       -0.0042
     10 C         139.4711  140.7470  163.9392 C.2     1  UNL1        0.2271
     11 O         138.0144  140.6627  163.5918 O.2     1  UNL1       -0.2747
     12 N         140.5088  140.5549  162.8732 N.am    1  UNL1       -0.2693
     13 H         141.4649  140.6102  163.1012 H       1  UNL1        0.1563
     14 C         140.0897  140.2785  161.4597 C.ar    1  UNL1        0.1343
     15 C         139.7903  141.4169  160.5300 C.ar    1  UNL1        0.0368
     16 C         139.3712  141.1404  159.1165 C.ar    1  UNL1        0.0341
     17 C         139.2515  139.7256  158.6328 C.ar    1  UNL1        0.1593
     18 F         138.8324  139.4492  157.2193 F       1  UNL1       -0.2025
     19 C         139.5509  138.5873  159.5625 C.ar    1  UNL1        0.1298
     20 N         139.9700  138.8637  160.9760 N.ar    1  UNL1       -0.2267
     21 C         141.4244  142.7340  165.3974 C.3     1  UNL1        0.2098
     22 O         140.7669  144.0082  164.9568 O.3     1  UNL1       -0.4723
     23 C         140.4426  145.3540  159.1187 C.3     1  UNL1        0.0736
     24 C         140.5237  145.0175  160.5782 C.ar    1  UNL1        0.1394
     25 N         141.8613  144.8719  161.2412 N.ar    1  UNL1       -0.2260
     26 C         141.9424  144.5354  162.7007 C.ar    1  UNL1        0.1382
     27 C         140.6858  144.3446  163.4973 C.ar    1  UNL1        0.1711
     28 C         139.3482  144.4902  162.8344 C.ar    1  UNL1        0.0960
     29 C         138.0915  144.2994  163.6310 C.3     1  UNL1        0.0555
     30 N         139.2671  144.8267  161.3748 N.ar    1  UNL1       -0.2319
@<TRIPOS>BOND
     1    23    24    1
     2    24    25   ar
     3    25    26   ar
     4    26    27   ar
     5    27    22    1
     6    22    21    1
     7     1    21    1
     8     1     4    1
     9     4     5   ar
    10     5     6   ar
    11     6     7   ar
    12     7     8   ar
    13     8     9   ar
    14     1     2    1
    15     2     3    1
    16     3    10    1
    17    10    11    2
    18    10    12   am
    19    12    14    1
    20    14    15   ar
    21    15    16   ar
    22    16    17   ar
    23    17    18    1
    24    17    19   ar
    25    19    20   ar
    26    27    28   ar
    27    28    29    1
    28    28    30   ar
    29    30    24   ar
    30     3     1    1
    31    20    14   ar
    32     9     4   ar
    33    12    13    1
@<TRIPOS>MOLECULE
*****
 30 33 0 0 0
SMALL
GASTEIGER

@<TRIPOS>ATOM
      1 C         141.1708  143.5045  163.6313 C.3     1  UNL1        0.0678
      2 C         140.4927  144.8199  163.8763 C.3     1  UNL1        0.0177
      3 C         140.6763  144.3205  162.4739 C.3     1  UNL1        0.0845
      4 C         141.4653  143.0961  165.0443 C.ar    1  UNL1       -0.0188
      5 C         142.8524  142.6745  165.4295 C.ar    1  UNL1       -0.0042
      6 C         143.1469  142.2661  166.8424 C.ar    1  UNL1       -0.0003
      7 C         142.0544  142.2792  167.8701 C.ar    1  UNL1       -0.0000
      8 C         140.6673  142.7008  167.4849 C.ar    1  UNL1       -0.0003
      9 C         140.3728  143.1092  166.0719 C.ar    1  UNL1       -0.0042
     10 C         140.4968  144.5033  160.9959 C.2     1  UNL1        0.2271
     11 O         139.2982  143.9200  160.3080 O.2     1  UNL1       -0.2747
     12 N         141.5160  145.2695  160.2057 N.am    1  UNL1       -0.2693
     13 H         142.3027  145.6523  160.6571 H       1  UNL1        0.1563
     14 C         141.3365  145.4523  158.7277 C.ar    1  UNL1        0.1343
     15 C         142.3402  144.8760  157.7734 C.ar    1  UNL1        0.0368
     16 C         142.1607  145.0589  156.2955 C.ar    1  UNL1        0.0341
     17 C         140.9776  145.8179  155.7718 C.ar    1  UNL1        0.1593
     18 F         140.7982  146.0007  154.2939 F       1  UNL1       -0.2025
     19 C         139.9740  146.3941  156.7261 C.ar    1  UNL1        0.1298
     20 N         140.1535  146.2113  158.2041 N.ar    1  UNL1       -0.2267
     21 C         141.7465  142.3310  162.8955 C.3     1  UNL1        0.2098
     22 O         140.8795  141.1511  162.5700 O.3     1  UNL1       -0.4723
     23 C         137.7256  138.4585  166.9062 C.3     1  UNL1        0.0736
     24 C         138.5141  139.1316  165.8221 C.ar    1  UNL1        0.1394
     25 N         139.9745  138.8306  165.6597 N.ar    1  UNL1       -0.2260
     26 C         140.7630  139.5038  164.5757 C.ar    1  UNL1        0.1382
     27 C         140.0910  140.4779  163.6540 C.ar    1  UNL1        0.1711
     28 C         138.6306  140.7789  163.8165 C.ar    1  UNL1        0.0960
     29 C         137.9585  141.7532  162.8948 C.3     1  UNL1        0.0555
     30 N         137.8421  140.1058  164.9005 N.ar    1  UNL1       -0.2319
@<TRIPOS>BOND
     1    23    24    1
     2    24    25   ar
     3    25    26   ar
     4    26    27   ar
     5    27    22    1
     6    22    21    1
     7     1    21    1
     8     1     4    1
     9     4     5   ar
    10     5     6   ar
    11     6     7   ar
    12     7     8   ar
    13     8     9   ar
    14     1     2    1
    15     2     3    1
    16     3    10    1
    17    10    11    2
    18    10    12   am
    19    12    14    1
    20    14    15   ar
    21    15    16   ar
    22    16    17   ar
    23    17    18    1
    24    17    19   ar
    25    19    20   ar
    26    27    28   ar
    27    28    29    1
    28    28    30   ar
    29    30    24   ar
    30     3     1    1
    31    20    14   ar
    32     9     4   ar
    33    12    13    1
@<TRIPOS>MOLECULE
*****
 30 33 0 0 0
SMALL
GASTEIGER

@<TRIPOS>ATOM
      1 C         141.8505  143.6138  162.3738 C.3     1  UNL1        0.0678
      2 C         141.7246  144.9755  162.9901 C.3     1  UNL1        0.0177
      3 C         141.7764  143.7583  163.8650 C.3     1  UNL1        0.0845
      4 C         141.8849  143.9873  160.9215 C.ar    1  UNL1       -0.0188
      5 C         140.9569  145.0423  160.3962 C.ar    1  UNL1       -0.0042
      6 C         140.9914  145.4158  158.9439 C.ar    1  UNL1       -0.0003
      7 C         141.9538  144.7344  158.0168 C.ar    1  UNL1       -0.0000
      8 C         142.8818  143.6794  158.5421 C.ar    1  UNL1       -0.0003
      9 C         142.8473  143.3059  159.9944 C.ar    1  UNL1       -0.0042
     10 C         141.7637  143.1388  165.2311 C.2     1  UNL1        0.2271
     11 O         140.5413  143.2495  166.0934 O.2     1  UNL1       -0.2747
     12 N         142.9733  142.4087  165.7349 N.am    1  UNL1       -0.2693
     13 H         143.7756  142.3360  165.1689 H       1  UNL1        0.1563
     14 C         142.9606  141.7892  167.1009 C.ar    1  UNL1        0.1343
     15 C         142.4799  140.3797  167.2809 C.ar    1  UNL1        0.0368
     16 C         142.4672  139.7604  168.6469 C.ar    1  UNL1        0.0341
     17 C         142.9351  140.5504  169.8331 C.ar    1  UNL1        0.1593
     18 F         142.9224  139.9309  171.1991 F       1  UNL1       -0.2025
     19 C         143.4158  141.9598  169.6531 C.ar    1  UNL1        0.1298
     20 N         143.4285  142.5792  168.2870 N.ar    1  UNL1       -0.2267
     21 C         141.9644  142.1223  162.2619 C.3     1  UNL1        0.2098
     22 O         140.7364  141.2912  162.0353 O.3     1  UNL1       -0.4723
     23 C         137.9572  138.7142  166.6866 C.3     1  UNL1        0.0736
     24 C         138.6520  139.3585  165.5238 C.ar    1  UNL1        0.1394
     25 N         139.8998  138.7445  164.9617 N.ar    1  UNL1       -0.2260
     26 C         140.5947  139.3887  163.7989 C.ar    1  UNL1        0.1382
     27 C         140.0416  140.6470  163.1981 C.ar    1  UNL1        0.1711
     28 C         138.7938  141.2609  163.7601 C.ar    1  UNL1        0.0960
     29 C         138.2407  142.5192  163.1593 C.3     1  UNL1        0.0555
     30 N         138.0990  140.6167  164.9230 N.ar    1  UNL1       -0.2319
@<TRIPOS>BOND
     1    23    24    1
     2    24    25   ar
     3    25    26   ar
     4    26    27   ar
     5    27    22    1
     6    22    21    1
     7     1    21    1
     8     1     4    1
     9     4     5   ar
    10     5     6   ar
    11     6     7   ar
    12     7     8   ar
    13     8     9   ar
    14     1     2    1
    15     2     3    1
    16     3    10    1
    17    10    11    2
    18    10    12   am
    19    12    14    1
    20    14    15   ar
    21    15    16   ar
    22    16    17   ar
    23    17    18    1
    24    17    19   ar
    25    19    20   ar
    26    27    28   ar
    27    28    29    1
    28    28    30   ar
    29    30    24   ar
    30     3     1    1
    31    20    14   ar
    32     9     4   ar
    33    12    13    1
@<TRIPOS>MOLECULE
*****
 30 33 0 0 0
SMALL
GASTEIGER

@<TRIPOS>ATOM
      1 C         141.9177  142.1958  166.3908 C.3     1  UNL1        0.0678
      2 C         143.2866  142.1602  165.7786 C.3     1  UNL1        0.0177
      3 C         142.1335  142.7271  165.0047 C.3     1  UNL1        0.0845
      4 C         142.2130  141.5776  167.7252 C.ar    1  UNL1       -0.0188
      5 C         142.2956  140.0858  167.8589 C.ar    1  UNL1       -0.0042
      6 C         142.5909  139.4677  169.1933 C.ar    1  UNL1       -0.0003
      7 C         142.8036  140.3412  170.3940 C.ar    1  UNL1       -0.0000
      8 C         142.7209  141.8330  170.2603 C.ar    1  UNL1       -0.0003
      9 C         142.4256  142.4511  168.9259 C.ar    1  UNL1       -0.0042
     10 C         141.5923  143.3611  163.7576 C.2     1  UNL1        0.2271
     11 O         140.8017  144.6328  163.8451 O.2     1  UNL1       -0.2747
     12 N         141.8416  142.7233  162.4230 N.am    1  UNL1       -0.2693
     13 H         142.3605  141.8886  162.3656 H       1  UNL1        0.1563
     14 C         141.3004  143.3572  161.1760 C.ar    1  UNL1        0.1343
     15 C         140.0974  142.7713  160.4981 C.ar    1  UNL1        0.0368
     16 C         139.5563  143.4053  159.2510 C.ar    1  UNL1        0.0341
     17 C         140.2181  144.6252  158.6818 C.ar    1  UNL1        0.1593
     18 F         139.6769  145.2591  157.4348 F       1  UNL1       -0.2025
     19 C         141.4210  145.2111  159.3598 C.ar    1  UNL1        0.1298
     20 N         141.9622  144.5771  160.6068 N.ar    1  UNL1       -0.2267
     21 C         140.4462  142.4461  166.5396 C.3     1  UNL1        0.2098
     22 O         139.4725  141.3182  166.3680 O.3     1  UNL1       -0.4723
     23 C         137.4697  139.8900  160.8954 C.3     1  UNL1        0.0736
     24 C         137.9704  140.2471  162.2636 C.ar    1  UNL1        0.1394
     25 N         137.5053  141.5096  162.9266 N.ar    1  UNL1       -0.2260
     26 C         138.0060  141.8666  164.2947 C.ar    1  UNL1        0.1382
     27 C         138.9718  140.9611  164.9998 C.ar    1  UNL1        0.1711
     28 C         139.4369  139.6986  164.3368 C.ar    1  UNL1        0.0960
     29 C         140.4027  138.7930  165.0420 C.3     1  UNL1        0.0555
     30 N         138.9362  139.3416  162.9687 N.ar    1  UNL1       -0.2319
@<TRIPOS>BOND
     1    23    24    1
     2    24    25   ar
     3    25    26   ar
     4    26    27   ar
     5    27    22    1
     6    22    21    1
     7     1    21    1
     8     1     4    1
     9     4     5   ar
    10     5     6   ar
    11     6     7   ar
    12     7     8   ar
    13     8     9   ar
    14     1     2    1
    15     2     3    1
    16     3    10    1
    17    10    11    2
    18    10    12   am
    19    12    14    1
    20    14    15   ar
    21    15    16   ar
    22    16    17   ar
    23    17    18    1
    24    17    19   ar
    25    19    20   ar
    26    27    28   ar
    27    28    29    1
    28    28    30   ar
    29    30    24   ar
    30     3     1    1
    31    20    14   ar
    32     9     4   ar
    33    12    13    1
@<TRIPOS>MOLECULE
*****
 30 33 0 0 0
SMALL
GASTEIGER

@<TRIPOS>ATOM
      1 C         139.6641  140.4079  166.2118 C.3     1  UNL1        0.0678
      2 C         138.4533  139.5257  166.2866 C.3     1  UNL1        0.0177
      3 C         138.7398  140.3014  165.0353 C.3     1  UNL1        0.0845
      4 C         140.2370  140.1806  167.5793 C.ar    1  UNL1       -0.0188
      5 C         141.6865  139.8277  167.7361 C.ar    1  UNL1       -0.0042
      6 C         142.2594  139.6003  169.1036 C.ar    1  UNL1       -0.0003
      7 C         141.3829  139.7259  170.3143 C.ar    1  UNL1       -0.0000
      8 C         139.9334  140.0788  170.1575 C.ar    1  UNL1       -0.0003
      9 C         139.3605  140.3061  168.7900 C.ar    1  UNL1       -0.0042
     10 C         138.3715  140.6879  163.6334 C.2     1  UNL1        0.2271
     11 O         137.0293  141.2949  163.3507 O.2     1  UNL1       -0.2747
     12 N         139.3456  140.4673  162.5142 N.am    1  UNL1       -0.2693
     13 H         140.2266  140.0689  162.6997 H       1  UNL1        0.1563
     14 C         138.9775  140.8537  161.1124 C.ar    1  UNL1        0.1343
     15 C         139.3724  142.1980  160.5767 C.ar    1  UNL1        0.0368
     16 C         139.0041  142.5843  159.1748 C.ar    1  UNL1        0.0341
     17 C         138.2411  141.6265  158.3087 C.ar    1  UNL1        0.1593
     18 F         137.8729  142.0129  156.9069 F       1  UNL1       -0.2025
     19 C         137.8462  140.2822  158.8445 C.ar    1  UNL1        0.1298
     20 N         138.2144  139.8958  160.2462 N.ar    1  UNL1       -0.2267
     21 C         140.6759  141.3692  165.6620 C.3     1  UNL1        0.2098
     22 O         140.4195  142.8457  165.7253 O.3     1  UNL1       -0.4723
     23 C         140.1137  146.0573  160.6665 C.3     1  UNL1        0.0736
     24 C         140.1902  145.2544  161.9312 C.ar    1  UNL1        0.1394
     25 N         141.4697  144.5681  162.3077 N.ar    1  UNL1       -0.2260
     26 C         141.5461  143.7652  163.5724 C.ar    1  UNL1        0.1382
     27 C         140.3431  143.6486  164.4606 C.ar    1  UNL1        0.1711
     28 C         139.0635  144.3349  164.0841 C.ar    1  UNL1        0.0960
     29 C         137.8604  144.2183  164.9723 C.3     1  UNL1        0.0555
     30 N         138.9871  145.1378  162.8194 N.ar    1  UNL1       -0.2319
@<TRIPOS>BOND
     1    23    24    1
     2    24    25   ar
     3    25    26   ar
     4    26    27   ar
     5    27    22    1
     6    22    21    1
     7     1    21    1
     8     1     4    1
     9     4     5   ar
    10     5     6   ar
    11     6     7   ar
    12     7     8   ar
    13     8     9   ar
    14     1     2    1
    15     2     3    1
    16     3    10    1
    17    10    11    2
    18    10    12   am
    19    12    14    1
    20    14    15   ar
    21    15    16   ar
    22    16    17   ar
    23    17    18    1
    24    17    19   ar
    25    19    20   ar
    26    27    28   ar
    27    28    29    1
    28    28    30   ar
    29    30    24   ar
    30     3     1    1
    31    20    14   ar
    32     9     4   ar
    33    12    13    1
@<TRIPOS>MOLECULE
*****
 30 33 0 0 0
SMALL
GASTEIGER

@<TRIPOS>ATOM
      1 C         140.3578  142.7566  165.4222 C.3     1  UNL1        0.0678
      2 C         138.9542  142.6722  164.9000 C.3     1  UNL1        0.0177
      3 C         140.0290  143.3004  164.0635 C.3     1  UNL1        0.0845
      4 C         140.1773  142.1048  166.7611 C.ar    1  UNL1       -0.0188
      5 C         139.6987  140.6857  166.8459 C.ar    1  UNL1       -0.0042
      6 C         139.5182  140.0339  168.1848 C.ar    1  UNL1       -0.0003
      7 C         139.8163  140.8011  169.4387 C.ar    1  UNL1       -0.0000
      8 C         140.2950  142.2202  169.3539 C.ar    1  UNL1       -0.0003
      9 C         140.4755  142.8720  168.0150 C.ar    1  UNL1       -0.0042
     10 C         140.4598  143.9772  162.7960 C.2     1  UNL1        0.2271
     11 O         140.9430  145.3968  162.8305 O.2     1  UNL1       -0.2747
     12 N         140.4074  143.2343  161.4939 N.am    1  UNL1       -0.2693
     13 H         140.0903  142.3025  161.4712 H       1  UNL1        0.1563
     14 C         140.8382  143.9109  160.2264 C.ar    1  UNL1        0.1343
     15 C         142.1368  143.5323  159.5780 C.ar    1  UNL1        0.0368
     16 C         142.5675  144.2090  158.3106 C.ar    1  UNL1        0.0341
     17 C         141.6997  145.2643  157.6914 C.ar    1  UNL1        0.1593
     18 F         142.1305  145.9410  156.4240 F       1  UNL1       -0.2025
     19 C         140.4012  145.6429  158.3399 C.ar    1  UNL1        0.1298
     20 N         139.9704  144.9662  159.6073 N.ar    1  UNL1       -0.2267
     21 C         141.8242  143.0673  165.4793 C.3     1  UNL1        0.2098
     22 O         142.8187  141.9601  165.6657 O.3     1  UNL1       -0.4723
     23 C         143.6979  137.9489  161.2911 C.3     1  UNL1        0.0736
     24 C         143.4781  138.9517  162.3848 C.ar    1  UNL1        0.1394
     25 N         143.4032  140.4137  162.0578 N.ar    1  UNL1       -0.2260
     26 C         143.1834  141.4165  163.1515 C.ar    1  UNL1        0.1382
     27 C         143.0385  140.9573  164.5721 C.ar    1  UNL1        0.1711
     28 C         143.1135  139.4953  164.8990 C.ar    1  UNL1        0.0960
     29 C         142.9686  139.0360  166.3197 C.3     1  UNL1        0.0555
     30 N         143.3333  138.4925  163.8053 N.ar    1  UNL1       -0.2319
@<TRIPOS>BOND
     1    23    24    1
     2    24    25   ar
     3    25    26   ar
     4    26    27   ar
     5    27    22    1
     6    22    21    1
     7     1    21    1
     8     1     4    1
     9     4     5   ar
    10     5     6   ar
    11     6     7   ar
    12     7     8   ar
    13     8     9   ar
    14     1     2    1
    15     2     3    1
    16     3    10    1
    17    10    11    2
    18    10    12   am
    19    12    14    1
    20    14    15   ar
    21    15    16   ar
    22    16    17   ar
    23    17    18    1
    24    17    19   ar
    25    19    20   ar
    26    27    28   ar
    27    28    29    1
    28    28    30   ar
    29    30    24   ar
    30     3     1    1
    31    20    14   ar
    32     9     4   ar
    33    12    13    1
@<TRIPOS>MOLECULE
*****
 30 33 0 0 0
SMALL
GASTEIGER

@<TRIPOS>ATOM
      1 C         140.9300  141.8235  166.3078 C.3     1  UNL1        0.0678
      2 C         142.0261  140.8061  166.4245 C.3     1  UNL1        0.0177
      3 C         141.7194  141.4289  165.0949 C.3     1  UNL1        0.0845
      4 C         140.4652  141.8703  167.7332 C.ar    1  UNL1       -0.0188
      5 C         139.7925  140.6760  168.3423 C.ar    1  UNL1       -0.0042
      6 C         139.3277  140.7228  169.7677 C.ar    1  UNL1       -0.0003
      7 C         139.5356  141.9639  170.5840 C.ar    1  UNL1       -0.0000
      8 C         140.2083  143.1583  169.9748 C.ar    1  UNL1       -0.0003
      9 C         140.6731  143.1114  168.5494 C.ar    1  UNL1       -0.0042
     10 C         141.9981  141.5608  163.6268 C.2     1  UNL1        0.2271
     11 O         141.7509  140.4002  162.7093 O.2     1  UNL1       -0.2747
     12 N         142.5241  142.8533  163.0764 N.am    1  UNL1       -0.2693
     13 H         142.6864  143.6150  163.6787 H       1  UNL1        0.1563
     14 C         142.8028  142.9852  161.6085 C.ar    1  UNL1        0.1343
     15 C         141.8514  143.7415  160.7294 C.ar    1  UNL1        0.0368
     16 C         142.1302  143.8734  159.2615 C.ar    1  UNL1        0.0341
     17 C         143.3603  143.2489  158.6726 C.ar    1  UNL1        0.1593
     18 F         143.6390  143.3808  157.2046 F       1  UNL1       -0.2025
     19 C         144.3116  142.4926  159.5517 C.ar    1  UNL1        0.1298
     20 N         144.0329  142.3607  161.0196 N.ar    1  UNL1       -0.2267
     21 C         139.9954  142.8246  165.6960 C.3     1  UNL1        0.2098
     22 O         138.5920  142.4255  165.3480 O.3     1  UNL1       -0.4723
     23 C         137.4245  139.8853  160.0391 C.3     1  UNL1        0.0736
     24 C         137.7164  140.5203  161.3663 C.ar    1  UNL1        0.1394
     25 N         137.8122  142.0130  161.4787 N.ar    1  UNL1       -0.2260
     26 C         138.1041  142.6481  162.8059 C.ar    1  UNL1        0.1382
     27 C         138.3001  141.7904  164.0208 C.ar    1  UNL1        0.1711
     28 C         138.2043  140.2977  163.9084 C.ar    1  UNL1        0.0960
     29 C         138.4004  139.4400  165.1233 C.3     1  UNL1        0.0555
     30 N         137.9125  139.6627  162.5812 N.ar    1  UNL1       -0.2319
@<TRIPOS>BOND
     1    23    24    1
     2    24    25   ar
     3    25    26   ar
     4    26    27   ar
     5    27    22    1
     6    22    21    1
     7     1    21    1
     8     1     4    1
     9     4     5   ar
    10     5     6   ar
    11     6     7   ar
    12     7     8   ar
    13     8     9   ar
    14     1     2    1
    15     2     3    1
    16     3    10    1
    17    10    11    2
    18    10    12   am
    19    12    14    1
    20    14    15   ar
    21    15    16   ar
    22    16    17   ar
    23    17    18    1
    24    17    19   ar
    25    19    20   ar
    26    27    28   ar
    27    28    29    1
    28    28    30   ar
    29    30    24   ar
    30     3     1    1
    31    20    14   ar
    32     9     4   ar
    33    12    13    1
@<TRIPOS>MOLECULE
*****
 30 33 0 0 0
SMALL
GASTEIGER

@<TRIPOS>ATOM
      1 C         141.6345  141.7374  165.7170 C.3     1  UNL1        0.0678
      2 C         140.4739  140.7897  165.7864 C.3     1  UNL1        0.0177
      3 C         141.1980  140.9948  164.4890 C.3     1  UNL1        0.0845
      4 C         141.6724  142.2076  167.1409 C.ar    1  UNL1       -0.0188
      5 C         140.4580  142.8387  167.7550 C.ar    1  UNL1       -0.0042
      6 C         140.4959  143.3088  169.1789 C.ar    1  UNL1       -0.0003
      7 C         141.7482  143.1479  169.9887 C.ar    1  UNL1       -0.0000
      8 C         142.9626  142.5168  169.3747 C.ar    1  UNL1       -0.0003
      9 C         142.9247  142.0466  167.9508 C.ar    1  UNL1       -0.0042
     10 C         141.3642  140.6845  163.0308 C.2     1  UNL1        0.2271
     11 O         140.3311  141.1419  162.0442 O.2     1  UNL1       -0.2747
     12 N         142.5635  139.9168  162.5593 N.am    1  UNL1       -0.2693
     13 H         143.2416  139.6166  163.2069 H       1  UNL1        0.1563
     14 C         142.7297  139.6065  161.1013 C.ar    1  UNL1        0.1343
     15 C         142.1263  138.3593  160.5263 C.ar    1  UNL1        0.0368
     16 C         142.2926  138.0491  159.0682 C.ar    1  UNL1        0.0341
     17 C         143.0622  138.9859  158.1850 C.ar    1  UNL1        0.1593
     18 F         143.2284  138.6756  156.7269 F       1  UNL1       -0.2025
     19 C         143.6655  140.2331  158.7600 C.ar    1  UNL1        0.1298
     20 N         143.4993  140.5434  160.2180 N.ar    1  UNL1       -0.2267
     21 C         142.7819  142.5219  165.1530 C.3     1  UNL1        0.2098
     22 O         142.5850  143.9525  164.7475 O.3     1  UNL1       -0.4723
     23 C         140.2814  145.2545  159.3625 C.3     1  UNL1        0.0736
     24 C         140.8573  144.9290  160.7088 C.ar    1  UNL1        0.1394
     25 N         142.3035  144.5514  160.8345 N.ar    1  UNL1       -0.2260
     26 C         142.8794  144.2259  162.1807 C.ar    1  UNL1        0.1382
     27 C         142.0091  144.2780  163.4013 C.ar    1  UNL1        0.1711
     28 C         140.5629  144.6556  163.2756 C.ar    1  UNL1        0.0960
     29 C         139.6925  144.7077  164.4962 C.3     1  UNL1        0.0555
     30 N         139.9870  144.9811  161.9293 N.ar    1  UNL1       -0.2319
@<TRIPOS>BOND
     1    23    24    1
     2    24    25   ar
     3    25    26   ar
     4    26    27   ar
     5    27    22    1
     6    22    21    1
     7     1    21    1
     8     1     4    1
     9     4     5   ar
    10     5     6   ar
    11     6     7   ar
    12     7     8   ar
    13     8     9   ar
    14     1     2    1
    15     2     3    1
    16     3    10    1
    17    10    11    2
    18    10    12   am
    19    12    14    1
    20    14    15   ar
    21    15    16   ar
    22    16    17   ar
    23    17    18    1
    24    17    19   ar
    25    19    20   ar
    26    27    28   ar
    27    28    29    1
    28    28    30   ar
    29    30    24   ar
    30     3     1    1
    31    20    14   ar
    32     9     4   ar
    33    12    13    1
