@<TRIPOS>MOLECULE
*****
 31 34 0 0 0
SMALL
GASTEIGER

@<TRIPOS>ATOM
      1 C         139.4200  139.6507  166.4024 C.ar    1  UNL1        0.0004
      2 C         138.2736  139.7905  165.4452 C.ar    1  UNL1        0.0031
      3 C         138.4839  139.5399  163.9814 C.ar    1  UNL1        0.0370
      4 C         139.8407  139.1495  163.4746 C.ar    1  UNL1        0.1409
      5 C         140.9872  139.0097  164.4318 C.ar    1  UNL1        0.0687
      6 C         140.7768  139.2604  165.8957 C.ar    1  UNL1        0.0059
      7 C         142.3439  138.6193  163.9251 C.2     1  UNL1        0.1795
      8 O         143.4904  138.4796  164.8823 O.2     1  UNL1       -0.2911
      9 C         142.5543  138.3687  162.4612 C.3     1  UNL1        0.1092
     10 C         141.4079  138.5084  161.5040 C.3     1  UNL1        0.1430
     11 C         142.7646  138.1180  160.9973 C.3     1  UNL1        0.0578
     12 C         142.9749  137.8674  159.5335 C.3     1  UNL1        0.0760
     13 N         141.8285  138.0072  158.5763 N.3     1  UNL1       -0.2687
     14 C         140.4718  138.3975  159.0830 C.3     1  UNL1        0.0760
     15 C         140.2614  138.6482  160.5468 C.3     1  UNL1        0.0578
     16 O         140.0511  138.8988  162.0108 O.3     1  UNL1       -0.4820
     17 C         140.3636  140.3188  168.7291 C.2     1  UNL1        0.0598
     18 C         139.2097  139.9014  167.8662 C.2     1  UNL1        0.0047
     19 O         139.5359  139.5080  171.0545 O.2     1  UNL1       -0.2681
     20 C         140.1533  140.5694  170.1929 C.2     1  UNL1        0.2679
     21 N         140.5604  141.8814  170.7952 N.am    1  UNL1       -0.1934
     22 O         140.3501  142.1321  172.2592 O.3     1  UNL1       -0.2949
     23 H         140.9656  142.5781  170.2298 H       1  UNL1        0.1825
     24 H         139.9441  141.3507  172.6660 H       1  UNL1        0.2414
     25 C         142.0389  137.7565  157.1124 C.3     1  UNL1        0.0991
     26 C         142.0873  136.3507  156.5915 C.ar    1  UNL1       -0.0061
     27 C         141.0953  135.8979  155.5616 C.ar    1  UNL1       -0.0029
     28 C         141.1437  134.4920  155.0407 C.ar    1  UNL1       -0.0003
     29 C         142.1841  133.5390  155.5499 C.ar    1  UNL1       -0.0000
     30 C         143.1762  133.9918  156.5798 C.ar    1  UNL1       -0.0003
     31 C         143.1278  135.3976  157.1007 C.ar    1  UNL1       -0.0029
@<TRIPOS>BOND
     1    19    20    2
     2    20    17    1
     3    17    18    2
     4    18     1    1
     5     1     2   ar
     6     2     3   ar
     7     3     4   ar
     8     4     5   ar
     9     5     6   ar
    10     5     7    1
    11     7     8    2
    12     7     9    1
    13     9    10    1
    14    10    11    1
    15    11    12    1
    16    12    13    1
    17    13    25    1
    18    25    26    1
    19    26    27   ar
    20    27    28   ar
    21    28    29   ar
    22    29    30   ar
    23    30    31   ar
    24    13    14    1
    25    14    15    1
    26    10    16    1
    27    20    21   am
    28    21    22    1
    29     6     1   ar
    30    15    10    1
    31    16     4    1
    32    31    26   ar
    33    21    23    1
    34    22    24    1
@<TRIPOS>MOLECULE
*****
 31 34 0 0 0
SMALL
GASTEIGER

@<TRIPOS>ATOM
      1 C         141.2112  141.8389  167.0835 C.ar    1  UNL1        0.0004
      2 C         142.2608  141.1887  166.2319 C.ar    1  UNL1        0.0031
      3 C         142.4593  141.6360  164.8140 C.ar    1  UNL1        0.0370
      4 C         141.6081  142.7337  164.2477 C.ar    1  UNL1        0.1409
      5 C         140.5584  143.3840  165.0993 C.ar    1  UNL1        0.0687
      6 C         140.3600  142.9366  166.5173 C.ar    1  UNL1        0.0059
      7 C         139.7072  144.4816  164.5331 C.2     1  UNL1        0.1795
      8 O         138.6576  145.1319  165.3848 O.2     1  UNL1       -0.2911
      9 C         139.9057  144.9290  163.1152 C.3     1  UNL1        0.1092
     10 C         140.9554  144.2787  162.2635 C.3     1  UNL1        0.1430
     11 C         140.1042  145.3763  161.6973 C.3     1  UNL1        0.0578
     12 C         140.3027  145.8237  160.2794 C.3     1  UNL1        0.0760
     13 N         141.3523  145.1734  159.4277 N.3     1  UNL1       -0.2687
     14 C         142.2035  144.0758  159.9940 C.3     1  UNL1        0.0760
     15 C         142.0050  143.6284  161.4118 C.3     1  UNL1        0.0578
     16 O         141.8066  143.1810  162.8298 O.3     1  UNL1       -0.4820
     17 C         139.7355  140.7149  168.9026 C.2     1  UNL1        0.0598
     18 C         141.0127  141.3916  168.5014 C.2     1  UNL1        0.0047
     19 O         138.2803  139.5475  170.7108 O.2     1  UNL1       -0.2681
     20 C         139.5370  140.2675  170.3205 C.2     1  UNL1        0.2679
     21 N         140.5951  140.5402  171.3480 N.am    1  UNL1       -0.1934
     22 O         140.3967  140.0929  172.7660 O.3     1  UNL1       -0.2949
     23 H         141.4199  141.0128  171.0918 H       1  UNL1        0.1825
     24 H         139.5391  139.6470  172.8473 H       1  UNL1        0.2414
     25 C         141.5508  145.6208  158.0098 C.3     1  UNL1        0.0991
     26 C         140.4023  145.5885  157.0454 C.ar    1  UNL1       -0.0061
     27 C         139.7465  144.2836  156.7035 C.ar    1  UNL1       -0.0029
     28 C         138.5980  144.2514  155.7391 C.ar    1  UNL1       -0.0003
     29 C         138.1054  145.5241  155.1167 C.ar    1  UNL1       -0.0000
     30 C         138.7612  146.8291  155.4587 C.ar    1  UNL1       -0.0003
     31 C         139.9096  146.8613  156.4230 C.ar    1  UNL1       -0.0029
@<TRIPOS>BOND
     1    19    20    2
     2    20    17    1
     3    17    18    2
     4    18     1    1
     5     1     2   ar
     6     2     3   ar
     7     3     4   ar
     8     4     5   ar
     9     5     6   ar
    10     5     7    1
    11     7     8    2
    12     7     9    1
    13     9    10    1
    14    10    11    1
    15    11    12    1
    16    12    13    1
    17    13    25    1
    18    25    26    1
    19    26    27   ar
    20    27    28   ar
    21    28    29   ar
    22    29    30   ar
    23    30    31   ar
    24    13    14    1
    25    14    15    1
    26    10    16    1
    27    20    21   am
    28    21    22    1
    29     6     1   ar
    30    15    10    1
    31    16     4    1
    32    31    26   ar
    33    21    23    1
    34    22    24    1
@<TRIPOS>MOLECULE
*****
 31 34 0 0 0
SMALL
GASTEIGER

@<TRIPOS>ATOM
      1 C         138.5872  139.4433  166.0085 C.ar    1  UNL1        0.0004
      2 C         138.8134  138.1923  165.2125 C.ar    1  UNL1        0.0031
      3 C         138.8554  138.2539  163.7144 C.ar    1  UNL1        0.0370
      4 C         138.6712  139.5666  163.0122 C.ar    1  UNL1        0.1409
      5 C         138.4450  140.8176  163.8083 C.ar    1  UNL1        0.0687
      6 C         138.4030  140.7560  165.3065 C.ar    1  UNL1        0.0059
      7 C         138.2609  142.1303  163.1062 C.2     1  UNL1        0.1795
      8 O         138.0347  143.3814  163.9022 O.2     1  UNL1       -0.2911
      9 C         138.3029  142.1920  161.6080 C.3     1  UNL1        0.1092
     10 C         138.5291  140.9409  160.8120 C.3     1  UNL1        0.1430
     11 C         138.3450  142.2536  160.1099 C.3     1  UNL1        0.0578
     12 C         138.3870  142.3152  158.6118 C.3     1  UNL1        0.0760
     13 N         138.6132  141.0641  157.8157 N.3     1  UNL1       -0.2687
     14 C         138.7974  139.7515  158.5178 C.3     1  UNL1        0.0760
     15 C         138.7553  139.6899  160.0159 C.3     1  UNL1        0.0578
     16 O         138.7133  139.6282  161.5141 O.3     1  UNL1       -0.4820
     17 C         139.4857  140.2221  168.3186 C.2     1  UNL1        0.0598
     18 C         138.5451  139.3817  167.5066 C.2     1  UNL1        0.0047
     19 O         138.1948  139.7087  170.5140 O.2     1  UNL1       -0.2681
     20 C         139.4437  140.1605  169.8167 C.2     1  UNL1        0.2679
     21 N         140.6505  140.5506  170.6175 N.am    1  UNL1       -0.1934
     22 O         140.6085  140.4891  172.1157 O.3     1  UNL1       -0.2949
     23 H         141.4701  140.8472  170.1598 H       1  UNL1        0.1825
     24 H         139.7350  140.1794  172.4022 H       1  UNL1        0.2414
     25 C         138.6552  141.1258  156.3175 C.3     1  UNL1        0.0991
     26 C         137.4126  140.8595  155.5208 C.ar    1  UNL1       -0.0061
     27 C         136.1738  141.6674  155.7709 C.ar    1  UNL1       -0.0029
     28 C         134.9311  141.4010  154.9741 C.ar    1  UNL1       -0.0003
     29 C         134.9273  140.3268  153.9272 C.ar    1  UNL1       -0.0000
     30 C         136.1661  139.5189  153.6771 C.ar    1  UNL1       -0.0003
     31 C         137.4087  139.7852  154.4739 C.ar    1  UNL1       -0.0029
@<TRIPOS>BOND
     1    19    20    2
     2    20    17    1
     3    17    18    2
     4    18     1    1
     5     1     2   ar
     6     2     3   ar
     7     3     4   ar
     8     4     5   ar
     9     5     6   ar
    10     5     7    1
    11     7     8    2
    12     7     9    1
    13     9    10    1
    14    10    11    1
    15    11    12    1
    16    12    13    1
    17    13    25    1
    18    25    26    1
    19    26    27   ar
    20    27    28   ar
    21    28    29   ar
    22    29    30   ar
    23    30    31   ar
    24    13    14    1
    25    14    15    1
    26    10    16    1
    27    20    21   am
    28    21    22    1
    29     6     1   ar
    30    15    10    1
    31    16     4    1
    32    31    26   ar
    33    21    23    1
    34    22    24    1
@<TRIPOS>MOLECULE
*****
 31 34 0 0 0
SMALL
GASTEIGER

@<TRIPOS>ATOM
      1 C         140.3391  139.5653  166.2475 C.ar    1  UNL1        0.0004
      2 C         141.7441  139.0650  166.0871 C.ar    1  UNL1        0.0031
      3 C         142.2560  138.6899  164.7280 C.ar    1  UNL1        0.0370
      4 C         141.3630  138.8151  163.5292 C.ar    1  UNL1        0.1409
      5 C         139.9580  139.3154  163.6897 C.ar    1  UNL1        0.0687
      6 C         139.4461  139.6905  165.0489 C.ar    1  UNL1        0.0059
      7 C         139.0650  139.4406  162.4911 C.2     1  UNL1        0.1795
      8 O         137.6600  139.9409  162.6515 O.2     1  UNL1       -0.2911
      9 C         139.5769  139.0655  161.1319 C.3     1  UNL1        0.1092
     10 C         140.9819  138.5653  160.9714 C.3     1  UNL1        0.1430
     11 C         140.0889  138.6905  159.7728 C.3     1  UNL1        0.0578
     12 C         140.6009  138.3154  158.4137 C.3     1  UNL1        0.0760
     13 N         142.0058  137.8151  158.2532 N.3     1  UNL1       -0.2687
     14 C         142.8989  137.6899  159.4519 C.3     1  UNL1        0.0760
     15 C         142.3869  138.0650  160.8110 C.3     1  UNL1        0.0578
     16 O         141.8749  138.4401  162.1702 O.3     1  UNL1       -0.4820
     17 C         140.7917  140.2119  168.7228 C.2     1  UNL1        0.0598
     18 C         139.8271  139.9403  167.6066 C.2     1  UNL1        0.0047
     19 O         139.1217  139.8434  170.6786 O.2     1  UNL1       -0.2681
     20 C         140.2798  140.5870  170.0819 C.2     1  UNL1        0.2679
     21 N         140.9258  141.7056  170.8443 N.am    1  UNL1       -0.1934
     22 O         140.4139  142.0807  172.2034 O.3     1  UNL1       -0.2949
     23 H         141.6859  142.1936  170.4526 H       1  UNL1        0.1825
     24 H         139.6685  141.5061  172.4381 H       1  UNL1        0.2414
     25 C         142.5178  137.4401  156.8941 C.3     1  UNL1        0.0991
     26 C         142.4657  136.0111  156.4410 C.ar    1  UNL1       -0.0061
     27 C         143.5352  135.0496  156.8673 C.ar    1  UNL1       -0.0029
     28 C         143.4830  133.6206  156.4142 C.ar    1  UNL1       -0.0003
     29 C         142.3613  133.1531  155.5349 C.ar    1  UNL1       -0.0000
     30 C         141.2918  134.1145  155.1086 C.ar    1  UNL1       -0.0003
     31 C         141.3439  135.5435  155.5617 C.ar    1  UNL1       -0.0029
@<TRIPOS>BOND
     1    19    20    2
     2    20    17    1
     3    17    18    2
     4    18     1    1
     5     1     2   ar
     6     2     3   ar
     7     3     4   ar
     8     4     5   ar
     9     5     6   ar
    10     5     7    1
    11     7     8    2
    12     7     9    1
    13     9    10    1
    14    10    11    1
    15    11    12    1
    16    12    13    1
    17    13    25    1
    18    25    26    1
    19    26    27   ar
    20    27    28   ar
    21    28    29   ar
    22    29    30   ar
    23    30    31   ar
    24    13    14    1
    25    14    15    1
    26    10    16    1
    27    20    21   am
    28    21    22    1
    29     6     1   ar
    30    15    10    1
    31    16     4    1
    32    31    26   ar
    33    21    23    1
    34    22    24    1
@<TRIPOS>MOLECULE
*****
 31 34 0 0 0
SMALL
GASTEIGER

@<TRIPOS>ATOM
      1 C         142.8306  140.7771  166.2231 C.ar    1  UNL1        0.0004
      2 C         143.4812  141.8863  165.4508 C.ar    1  UNL1        0.0031
      3 C         143.6761  141.7549  163.9694 C.ar    1  UNL1        0.0370
      4 C         143.2203  140.5142  163.2601 C.ar    1  UNL1        0.1409
      5 C         142.5697  139.4050  164.0324 C.ar    1  UNL1        0.0687
      6 C         142.3748  139.5365  165.5139 C.ar    1  UNL1        0.0059
      7 C         142.1139  138.1643  163.3232 C.2     1  UNL1        0.1795
      8 O         141.4632  137.0551  164.0954 O.2     1  UNL1       -0.2911
      9 C         142.3088  138.0328  161.8416 C.3     1  UNL1        0.1092
     10 C         142.9594  139.1420  161.0694 C.3     1  UNL1        0.1430
     11 C         142.5037  137.9013  160.3602 C.3     1  UNL1        0.0578
     12 C         142.6985  137.7699  158.8788 C.3     1  UNL1        0.0760
     13 N         143.3492  138.8791  158.1065 N.3     1  UNL1       -0.2687
     14 C         143.8050  140.1197  158.8157 C.3     1  UNL1        0.0760
     15 C         143.6101  140.2512  160.2972 C.3     1  UNL1        0.0578
     16 O         143.4152  140.3827  161.7787 O.3     1  UNL1       -0.4820
     17 C         142.5018  139.6804  168.5553 C.2     1  UNL1        0.0598
     18 C         142.6357  140.9086  167.7045 C.2     1  UNL1        0.0047
     19 O         143.4455  139.5282  170.9711 O.2     1  UNL1       -0.2681
     20 C         142.3069  139.8119  170.0367 C.2     1  UNL1        0.2679
     21 N         140.9734  140.2271  170.5838 N.am    1  UNL1       -0.1934
     22 O         140.7784  140.3586  172.0653 O.3     1  UNL1       -0.2949
     23 H         140.2261  140.4133  169.9705 H       1  UNL1        0.1825
     24 H         141.6066  140.1409  172.5210 H       1  UNL1        0.2414
     25 C         143.5441  138.7475  156.6250 C.3     1  UNL1        0.0991
     26 C         142.9726  137.5683  155.8952 C.ar    1  UNL1       -0.0061
     27 C         141.5584  137.6080  155.3968 C.ar    1  UNL1       -0.0029
     28 C         140.9869  136.4287  154.6669 C.ar    1  UNL1       -0.0003
     29 C         141.8297  135.2097  154.4354 C.ar    1  UNL1       -0.0000
     30 C         143.2440  135.1699  154.9337 C.ar    1  UNL1       -0.0003
     31 C         143.8154  136.3492  155.6636 C.ar    1  UNL1       -0.0029
@<TRIPOS>BOND
     1    19    20    2
     2    20    17    1
     3    17    18    2
     4    18     1    1
     5     1     2   ar
     6     2     3   ar
     7     3     4   ar
     8     4     5   ar
     9     5     6   ar
    10     5     7    1
    11     7     8    2
    12     7     9    1
    13     9    10    1
    14    10    11    1
    15    11    12    1
    16    12    13    1
    17    13    25    1
    18    25    26    1
    19    26    27   ar
    20    27    28   ar
    21    28    29   ar
    22    29    30   ar
    23    30    31   ar
    24    13    14    1
    25    14    15    1
    26    10    16    1
    27    20    21   am
    28    21    22    1
    29     6     1   ar
    30    15    10    1
    31    16     4    1
    32    31    26   ar
    33    21    23    1
    34    22    24    1
@<TRIPOS>MOLECULE
*****
 31 34 0 0 0
SMALL
GASTEIGER

@<TRIPOS>ATOM
      1 C         140.6182  142.2189  166.1018 C.ar    1  UNL1        0.0004
      2 C         139.6907  141.2050  165.5002 C.ar    1  UNL1        0.0031
      3 C         139.3204  141.2950  164.0494 C.ar    1  UNL1        0.0370
      4 C         139.8775  142.3989  163.2002 C.ar    1  UNL1        0.1409
      5 C         140.8049  143.4128  163.8018 C.ar    1  UNL1        0.0687
      6 C         141.1752  143.3228  165.2527 C.ar    1  UNL1        0.0059
      7 C         141.3620  144.5167  162.9527 C.2     1  UNL1        0.1795
      8 O         142.2894  145.5306  163.5543 O.2     1  UNL1       -0.2911
      9 C         140.9916  144.6067  161.5019 C.3     1  UNL1        0.1092
     10 C         140.0642  143.5928  160.9003 C.3     1  UNL1        0.1430
     11 C         140.6213  144.6967  160.0511 C.3     1  UNL1        0.0578
     12 C         140.2509  144.7867  158.6004 C.3     1  UNL1        0.0760
     13 N         139.3235  143.7728  157.9988 N.3     1  UNL1       -0.2687
     14 C         138.7664  142.6689  158.8479 C.3     1  UNL1        0.0760
     15 C         139.1368  142.5789  160.2986 C.3     1  UNL1        0.0578
     16 O         139.5071  142.4889  161.7495 O.3     1  UNL1       -0.4820
     17 C         140.4963  143.1661  168.5180 C.2     1  UNL1        0.0598
     18 C         140.9885  142.1289  167.5525 C.2     1  UNL1        0.0047
     19 O         142.0849  143.7881  170.4774 O.2     1  UNL1       -0.2681
     20 C         140.8666  143.0761  169.9687 C.2     1  UNL1        0.2679
     21 N         140.0186  142.2740  170.9109 N.am    1  UNL1       -0.1934
     22 O         140.3890  142.1840  172.3617 O.3     1  UNL1       -0.2949
     23 H         139.2190  141.8067  170.5770 H       1  UNL1        0.1825
     24 H         141.1961  142.6976  172.5218 H       1  UNL1        0.2414
     25 C         138.9532  143.8628  156.5479 C.3     1  UNL1        0.0991
     26 C         139.4450  145.0116  155.7183 C.ar    1  UNL1       -0.0061
     27 C         138.6506  146.2822  155.6506 C.ar    1  UNL1       -0.0029
     28 C         139.1424  147.4310  154.8209 C.ar    1  UNL1       -0.0003
     29 C         140.4286  147.3092  154.0588 C.ar    1  UNL1       -0.0000
     30 C         141.2230  146.0386  154.1264 C.ar    1  UNL1       -0.0003
     31 C         140.7312  144.8898  154.9561 C.ar    1  UNL1       -0.0029
@<TRIPOS>BOND
     1    19    20    2
     2    20    17    1
     3    17    18    2
     4    18     1    1
     5     1     2   ar
     6     2     3   ar
     7     3     4   ar
     8     4     5   ar
     9     5     6   ar
    10     5     7    1
    11     7     8    2
    12     7     9    1
    13     9    10    1
    14    10    11    1
    15    11    12    1
    16    12    13    1
    17    13    25    1
    18    25    26    1
    19    26    27   ar
    20    27    28   ar
    21    28    29   ar
    22    29    30   ar
    23    30    31   ar
    24    13    14    1
    25    14    15    1
    26    10    16    1
    27    20    21   am
    28    21    22    1
    29     6     1   ar
    30    15    10    1
    31    16     4    1
    32    31    26   ar
    33    21    23    1
    34    22    24    1
@<TRIPOS>MOLECULE
*****
 31 34 0 0 0
SMALL
GASTEIGER

@<TRIPOS>ATOM
      1 C         140.1354  141.9749  166.4659 C.ar    1  UNL1        0.0004
      2 C         140.3959  143.3054  165.8242 C.ar    1  UNL1        0.0031
      3 C         140.1250  143.4984  164.3615 C.ar    1  UNL1        0.0370
      4 C         139.5937  142.3609  163.5406 C.ar    1  UNL1        0.1409
      5 C         139.3332  141.0304  164.1824 C.ar    1  UNL1        0.0687
      6 C         139.6041  140.8374  165.6451 C.ar    1  UNL1        0.0059
      7 C         138.8019  139.8930  163.3615 C.2     1  UNL1        0.1795
      8 O         138.5414  138.5624  164.0033 O.2     1  UNL1       -0.2911
      9 C         138.5310  140.0860  161.8988 C.3     1  UNL1        0.1092
     10 C         138.7915  141.4165  161.2570 C.3     1  UNL1        0.1430
     11 C         138.2602  140.2790  160.4362 C.3     1  UNL1        0.0578
     12 C         137.9894  140.4721  158.9736 C.3     1  UNL1        0.0760
     13 N         138.2499  141.8026  158.3318 N.3     1  UNL1       -0.2687
     14 C         138.7812  142.9400  159.1526 C.3     1  UNL1        0.0760
     15 C         139.0520  142.7470  160.6153 C.3     1  UNL1        0.0578
     16 O         139.3229  142.5540  162.0780 O.3     1  UNL1       -0.4820
     17 C         140.1064  140.4639  168.5793 C.2     1  UNL1        0.0598
     18 C         140.4062  141.7818  167.9286 C.2     1  UNL1        0.0047
     19 O         139.3624  139.5861  170.9086 O.2     1  UNL1       -0.2681
     20 C         140.3772  140.2709  170.0420 C.2     1  UNL1        0.2679
     21 N         141.6628  140.7627  170.6379 N.am    1  UNL1       -0.1934
     22 O         141.9337  140.5696  172.1006 O.3     1  UNL1       -0.2949
     23 H         142.3289  141.2122  170.0691 H       1  UNL1        0.1825
     24 H         141.1823  140.1139  172.5112 H       1  UNL1        0.2414
     25 C         137.9790  141.9956  156.8691 C.3     1  UNL1        0.0991
     26 C         137.2540  140.9355  156.0943 C.ar    1  UNL1       -0.0061
     27 C         138.0285  139.9063  155.3256 C.ar    1  UNL1       -0.0029
     28 C         137.3034  138.8461  154.5508 C.ar    1  UNL1       -0.0003
     29 C         135.8038  138.8151  154.5447 C.ar    1  UNL1       -0.0000
     30 C         135.0292  139.8443  155.3134 C.ar    1  UNL1       -0.0003
     31 C         135.7542  140.9044  156.0882 C.ar    1  UNL1       -0.0029
@<TRIPOS>BOND
     1    19    20    2
     2    20    17    1
     3    17    18    2
     4    18     1    1
     5     1     2   ar
     6     2     3   ar
     7     3     4   ar
     8     4     5   ar
     9     5     6   ar
    10     5     7    1
    11     7     8    2
    12     7     9    1
    13     9    10    1
    14    10    11    1
    15    11    12    1
    16    12    13    1
    17    13    25    1
    18    25    26    1
    19    26    27   ar
    20    27    28   ar
    21    28    29   ar
    22    29    30   ar
    23    30    31   ar
    24    13    14    1
    25    14    15    1
    26    10    16    1
    27    20    21   am
    28    21    22    1
    29     6     1   ar
    30    15    10    1
    31    16     4    1
    32    31    26   ar
    33    21    23    1
    34    22    24    1
@<TRIPOS>MOLECULE
*****
 31 34 0 0 0
SMALL
GASTEIGER

@<TRIPOS>ATOM
      1 C         138.9110  140.2916  169.5553 C.ar    1  UNL1        0.0004
      2 C         139.6937  141.5508  169.7826 C.ar    1  UNL1        0.0031
      3 C         140.3932  142.2166  168.6348 C.ar    1  UNL1        0.0370
      4 C         140.3099  141.6231  167.2596 C.ar    1  UNL1        0.1409
      5 C         139.5272  140.3639  167.0324 C.ar    1  UNL1        0.0687
      6 C         138.8277  139.6981  168.1803 C.ar    1  UNL1        0.0059
      7 C         139.4439  139.7704  165.6574 C.2     1  UNL1        0.1795
      8 O         138.6611  138.5112  165.4301 O.2     1  UNL1       -0.2911
      9 C         140.1433  140.4362  164.5095 C.3     1  UNL1        0.1092
     10 C         140.9261  141.6954  164.7367 C.3     1  UNL1        0.1430
     11 C         140.8428  141.1019  163.3617 C.3     1  UNL1        0.0578
     12 C         141.5422  141.7677  162.2139 C.3     1  UNL1        0.0760
     13 N         142.3250  143.0269  162.4411 N.3     1  UNL1       -0.2687
     14 C         142.4083  143.6204  163.8162 C.3     1  UNL1        0.0760
     15 C         141.7088  142.9546  164.9640 C.3     1  UNL1        0.0578
     16 O         141.0093  142.2889  166.1118 O.3     1  UNL1       -0.4820
     17 C         136.9747  138.8132  170.4582 C.2     1  UNL1        0.0598
     18 C         138.2116  139.6258  170.7031 C.2     1  UNL1        0.0047
     19 O         135.4490  138.9631  172.5557 O.2     1  UNL1       -0.2681
     20 C         136.2753  138.1474  171.6060 C.2     1  UNL1        0.2679
     21 N         136.4021  136.6660  171.8041 N.am    1  UNL1       -0.1934
     22 O         135.7027  136.0002  172.9520 O.3     1  UNL1       -0.2949
     23 H         136.9445  136.1307  171.1808 H       1  UNL1        0.1825
     24 H         135.2164  136.6652  173.4640 H       1  UNL1        0.2414
     25 C         143.0244  143.6927  161.2932 C.3     1  UNL1        0.0991
     26 C         142.2545  144.0685  160.0620 C.ar    1  UNL1       -0.0061
     27 C         142.6362  143.4883  158.7325 C.ar    1  UNL1       -0.0029
     28 C         141.8662  143.8642  157.5012 C.ar    1  UNL1       -0.0003
     29 C         140.7147  144.8203  157.5995 C.ar    1  UNL1       -0.0000
     30 C         140.3330  145.4005  158.9290 C.ar    1  UNL1       -0.0003
     31 C         141.1029  145.0247  160.1602 C.ar    1  UNL1       -0.0029
@<TRIPOS>BOND
     1    19    20    2
     2    20    17    1
     3    17    18    2
     4    18     1    1
     5     1     2   ar
     6     2     3   ar
     7     3     4   ar
     8     4     5   ar
     9     5     6   ar
    10     5     7    1
    11     7     8    2
    12     7     9    1
    13     9    10    1
    14    10    11    1
    15    11    12    1
    16    12    13    1
    17    13    25    1
    18    25    26    1
    19    26    27   ar
    20    27    28   ar
    21    28    29   ar
    22    29    30   ar
    23    30    31   ar
    24    13    14    1
    25    14    15    1
    26    10    16    1
    27    20    21   am
    28    21    22    1
    29     6     1   ar
    30    15    10    1
    31    16     4    1
    32    31    26   ar
    33    21    23    1
    34    22    24    1
@<TRIPOS>MOLECULE
*****
 31 34 0 0 0
SMALL
GASTEIGER

@<TRIPOS>ATOM
      1 C         142.6858  139.8877  165.9880 C.ar    1  UNL1        0.0004
      2 C         142.1020  138.5498  165.6426 C.ar    1  UNL1        0.0031
      3 C         142.0849  138.0845  164.2168 C.ar    1  UNL1        0.0370
      4 C         142.6517  138.9570  163.1362 C.ar    1  UNL1        0.1409
      5 C         143.2355  140.2949  163.4816 C.ar    1  UNL1        0.0687
      6 C         143.2525  140.7602  164.9075 C.ar    1  UNL1        0.0059
      7 C         143.8022  141.1674  162.4011 C.2     1  UNL1        0.1795
      8 O         144.3860  142.5053  162.7465 O.2     1  UNL1       -0.2911
      9 C         143.7851  140.7021  160.9751 C.3     1  UNL1        0.1092
     10 C         143.2013  139.3642  160.6298 C.3     1  UNL1        0.1430
     11 C         143.7680  140.2367  159.5493 C.3     1  UNL1        0.0578
     12 C         143.7509  139.7714  158.1234 C.3     1  UNL1        0.0760
     13 N         143.1671  138.4335  157.7781 N.3     1  UNL1       -0.2687
     14 C         142.6004  137.5610  158.8585 C.3     1  UNL1        0.0760
     15 C         142.6175  138.0263  160.2844 C.3     1  UNL1        0.0578
     16 O         142.6346  138.4917  161.7104 O.3     1  UNL1       -0.4820
     17 C         141.5994  139.9513  168.3472 C.2     1  UNL1        0.0598
     18 C         142.7029  140.3530  167.4139 C.2     1  UNL1        0.0047
     19 O         142.6334  141.4243  170.2210 O.2     1  UNL1       -0.2681
     20 C         141.6165  140.4167  169.7731 C.2     1  UNL1        0.2679
     21 N         140.6167  139.8744  170.7509 N.am    1  UNL1       -0.1934
     22 O         140.6338  140.3398  172.1769 O.3     1  UNL1       -0.2949
     23 H         139.9493  139.2131  170.4569 H       1  UNL1        0.1825
     24 H         141.3473  140.9856  172.2977 H       1  UNL1        0.2414
     25 C         143.1501  137.9682  156.3521 C.3     1  UNL1        0.0991
     26 C         142.8103  136.5426  156.0324 C.ar    1  UNL1       -0.0061
     27 C         141.5229  136.2167  155.3349 C.ar    1  UNL1       -0.0029
     28 C         141.1832  134.7910  155.0152 C.ar    1  UNL1       -0.0003
     29 C         142.1307  133.6914  155.3930 C.ar    1  UNL1       -0.0000
     30 C         143.4181  134.0173  156.0905 C.ar    1  UNL1       -0.0003
     31 C         143.7579  135.4428  156.4102 C.ar    1  UNL1       -0.0029
@<TRIPOS>BOND
     1    19    20    2
     2    20    17    1
     3    17    18    2
     4    18     1    1
     5     1     2   ar
     6     2     3   ar
     7     3     4   ar
     8     4     5   ar
     9     5     6   ar
    10     5     7    1
    11     7     8    2
    12     7     9    1
    13     9    10    1
    14    10    11    1
    15    11    12    1
    16    12    13    1
    17    13    25    1
    18    25    26    1
    19    26    27   ar
    20    27    28   ar
    21    28    29   ar
    22    29    30   ar
    23    30    31   ar
    24    13    14    1
    25    14    15    1
    26    10    16    1
    27    20    21   am
    28    21    22    1
    29     6     1   ar
    30    15    10    1
    31    16     4    1
    32    31    26   ar
    33    21    23    1
    34    22    24    1
