@<TRIPOS>MOLECULE
*****
 27 31 0 0 0
SMALL
GASTEIGER

@<TRIPOS>ATOM
      1 O         140.6714  142.1182  172.1317 O.2     1  UNL1       -0.2734
      2 C         140.4888  141.4512  170.8006 C.2     1  UNL1        0.2415
      3 C         141.6029  141.4636  169.7964 C.3     1  UNL1        0.0927
      4 C         141.4203  140.7967  168.4653 C.3     1  UNL1        0.0513
      5 C         142.5345  140.8091  167.4610 C.3     1  UNL1        0.0111
      6 C         142.3518  140.1421  166.1299 C.3     1  UNL1        0.0269
      7 C         141.0550  139.4627  165.8031 C.ar    1  UNL1       -0.0180
      8 C         140.8723  138.7958  164.4720 C.ar    1  UNL1        0.0327
      9 C         139.5756  138.1164  164.1452 C.ar    1  UNL1        0.1381
     10 C         138.4615  138.1040  165.1494 C.ar    1  UNL1        0.0369
     11 C         138.6441  138.7710  166.4805 C.ar    1  UNL1        0.0040
     12 C         139.9409  139.4503  166.8073 C.ar    1  UNL1        0.0113
     13 C         140.1235  140.1173  168.1384 C.2     1  UNL1        0.0760
     14 N         139.0094  140.1049  169.1427 N.2     1  UNL1       -0.1836
     15 N         139.1921  140.7719  170.4738 N.am    1  UNL1       -0.2062
     16 H         138.4608  140.7637  171.1329 H       1  UNL1        0.1772
     17 O         139.3929  137.4494  162.8141 O.3     1  UNL1       -0.4791
     18 C         139.0577  138.2698  161.6039 C.3     1  UNL1        0.1687
     19 C         140.0153  138.3318  160.4510 C.3     1  UNL1        0.0609
     20 C         139.6801  139.1521  159.2408 C.3     1  UNL1        0.0758
     21 N         138.3871  139.9104  159.1834 N.3     1  UNL1       -0.2737
     22 C         137.4295  139.8484  160.3362 C.3     1  UNL1        0.0758
     23 C         137.7647  139.0281  161.5465 C.3     1  UNL1        0.0609
     24 C         138.0519  140.7308  157.9731 C.3     1  UNL1        0.0575
     25 C         137.8223  142.1896  157.7110 C.3     1  UNL1        0.0160
     26 C         137.5778  141.8908  156.2615 C.3     1  UNL1        0.0028
     27 C         137.8073  140.4318  156.5237 C.3     1  UNL1        0.0160
@<TRIPOS>BOND
     1     1     2    2
     2     2     3    1
     3     3     4    1
     4     4     5    1
     5     5     6    1
     6     6     7    1
     7     7     8   ar
     8     8     9   ar
     9     9    17    1
    10    17    18    1
    11    18    19    1
    12    19    20    1
    13    20    21    1
    14    21    24    1
    15    24    25    1
    16    25    26    1
    17    26    27    1
    18    21    22    1
    19    22    23    1
    20     9    10   ar
    21    10    11   ar
    22    11    12   ar
    23    12    13    1
    24    13    14    2
    25    14    15    1
    26    15     2   am
    27    13     4    1
    28    12     7   ar
    29    23    18    1
    30    27    24    1
    31    15    16    1
@<TRIPOS>MOLECULE
*****
 27 31 0 0 0
SMALL
GASTEIGER

@<TRIPOS>ATOM
      1 O         140.4229  142.3856  171.9223 O.2     1  UNL1       -0.2734
      2 C         140.2629  141.6940  170.6009 C.2     1  UNL1        0.2415
      3 C         141.1621  142.0499  169.4544 C.3     1  UNL1        0.0927
      4 C         141.0020  141.3584  168.1330 C.3     1  UNL1        0.0513
      5 C         141.9014  141.7144  166.9864 C.3     1  UNL1        0.0111
      6 C         141.7413  141.0228  165.6650 C.3     1  UNL1        0.0269
      7 C         140.6819  139.9753  165.4901 C.ar    1  UNL1       -0.0180
      8 C         140.5218  139.2838  164.1687 C.ar    1  UNL1        0.0327
      9 C         139.4625  138.2363  163.9938 C.ar    1  UNL1        0.1381
     10 C         138.5633  137.8804  165.1404 C.ar    1  UNL1        0.0369
     11 C         138.7233  138.5720  166.4618 C.ar    1  UNL1        0.0040
     12 C         139.7827  139.6194  166.6367 C.ar    1  UNL1        0.0113
     13 C         139.9427  140.3110  167.9581 C.2     1  UNL1        0.0760
     14 N         139.0435  139.9551  169.1046 N.2     1  UNL1       -0.1836
     15 N         139.2035  140.6466  170.4260 N.am    1  UNL1       -0.2062
     16 H         138.6133  140.4130  171.1786 H       1  UNL1        0.1772
     17 O         139.3024  137.5448  162.6724 O.3     1  UNL1       -0.4791
     18 C         138.9810  138.3417  161.4429 C.3     1  UNL1        0.1687
     19 C         137.7231  139.1568  161.3851 C.3     1  UNL1        0.0609
     20 C         137.4017  139.9537  160.1556 C.3     1  UNL1        0.0758
     21 N         138.3382  139.9355  158.9840 N.3     1  UNL1       -0.2737
     22 C         139.5960  139.1204  159.0418 C.3     1  UNL1        0.0758
     23 C         139.9175  138.3234  160.2713 C.3     1  UNL1        0.0609
     24 C         138.0167  140.7325  157.7545 C.3     1  UNL1        0.0575
     25 C         137.6559  142.1625  157.4818 C.3     1  UNL1        0.0160
     26 C         137.5621  141.8594  156.0157 C.3     1  UNL1        0.0028
     27 C         137.9230  140.4292  156.2884 C.3     1  UNL1        0.0160
@<TRIPOS>BOND
     1     1     2    2
     2     2     3    1
     3     3     4    1
     4     4     5    1
     5     5     6    1
     6     6     7    1
     7     7     8   ar
     8     8     9   ar
     9     9    17    1
    10    17    18    1
    11    18    19    1
    12    19    20    1
    13    20    21    1
    14    21    24    1
    15    24    25    1
    16    25    26    1
    17    26    27    1
    18    21    22    1
    19    22    23    1
    20     9    10   ar
    21    10    11   ar
    22    11    12   ar
    23    12    13    1
    24    13    14    2
    25    14    15    1
    26    15     2   am
    27    13     4    1
    28    12     7   ar
    29    23    18    1
    30    27    24    1
    31    15    16    1
@<TRIPOS>MOLECULE
*****
 27 31 0 0 0
SMALL
GASTEIGER

@<TRIPOS>ATOM
      1 O         140.3371  142.5005  171.9981 O.2     1  UNL1       -0.2734
      2 C         140.1007  141.8452  170.6697 C.2     1  UNL1        0.2415
      3 C         140.5140  142.5402  169.4064 C.3     1  UNL1        0.0927
      4 C         140.2777  141.8849  168.0780 C.3     1  UNL1        0.0513
      5 C         140.6910  142.5801  166.8146 C.3     1  UNL1        0.0111
      6 C         140.4546  141.9247  165.4862 C.3     1  UNL1        0.0269
      7 C         139.8049  140.5742  165.4212 C.ar    1  UNL1       -0.0180
      8 C         139.5686  139.9189  164.0928 C.ar    1  UNL1        0.0327
      9 C         138.9189  138.5685  164.0277 C.ar    1  UNL1        0.1381
     10 C         138.5056  137.8734  165.2910 C.ar    1  UNL1        0.0369
     11 C         138.7420  138.5287  166.6194 C.ar    1  UNL1        0.0040
     12 C         139.3916  139.8791  166.6845 C.ar    1  UNL1        0.0113
     13 C         139.6280  140.5345  168.0129 C.2     1  UNL1        0.0760
     14 N         139.2147  139.8394  169.2762 N.2     1  UNL1       -0.1836
     15 N         139.4511  140.4947  170.6046 N.am    1  UNL1       -0.2062
     16 H         139.1798  140.0385  171.4338 H       1  UNL1        0.1772
     17 O         138.6825  137.9131  162.6993 O.3     1  UNL1       -0.4791
     18 C         139.5924  138.2096  161.5442 C.3     1  UNL1        0.1687
     19 C         139.0283  138.7552  160.2658 C.3     1  UNL1        0.0609
     20 C         139.9381  139.0516  159.1108 C.3     1  UNL1        0.0758
     21 N         141.4122  138.8026  159.2340 N.3     1  UNL1       -0.2737
     22 C         141.9764  138.2571  160.5123 C.3     1  UNL1        0.0758
     23 C         141.0665  137.9606  161.6675 C.3     1  UNL1        0.0609
     24 C         142.3221  139.0991  158.0789 C.3     1  UNL1        0.0575
     25 C         142.3320  138.7510  156.6200 C.3     1  UNL1        0.0160
     26 C         143.6089  139.5185  156.4454 C.3     1  UNL1        0.0028
     27 C         143.5989  139.8667  157.9044 C.3     1  UNL1        0.0160
@<TRIPOS>BOND
     1     1     2    2
     2     2     3    1
     3     3     4    1
     4     4     5    1
     5     5     6    1
     6     6     7    1
     7     7     8   ar
     8     8     9   ar
     9     9    17    1
    10    17    18    1
    11    18    19    1
    12    19    20    1
    13    20    21    1
    14    21    24    1
    15    24    25    1
    16    25    26    1
    17    26    27    1
    18    21    22    1
    19    22    23    1
    20     9    10   ar
    21    10    11   ar
    22    11    12   ar
    23    12    13    1
    24    13    14    2
    25    14    15    1
    26    15     2   am
    27    13     4    1
    28    12     7   ar
    29    23    18    1
    30    27    24    1
    31    15    16    1
@<TRIPOS>MOLECULE
*****
 27 31 0 0 0
SMALL
GASTEIGER

@<TRIPOS>ATOM
      1 O         140.3956  142.1330  172.2418 O.2     1  UNL1       -0.2734
      2 C         140.9430  142.0959  170.8457 C.2     1  UNL1        0.2415
      3 C         140.2744  141.2535  169.8001 C.3     1  UNL1        0.0927
      4 C         140.8217  141.2164  168.4041 C.3     1  UNL1        0.0513
      5 C         140.1531  140.3740  167.3585 C.3     1  UNL1        0.0111
      6 C         140.7004  140.3369  165.9624 C.3     1  UNL1        0.0269
      7 C         141.9164  141.1423  165.6119 C.ar    1  UNL1       -0.0180
      8 C         142.4637  141.1052  164.2158 C.ar    1  UNL1        0.0327
      9 C         143.6796  141.9105  163.8653 C.ar    1  UNL1        0.1381
     10 C         144.3482  142.7529  164.9109 C.ar    1  UNL1        0.0369
     11 C         143.8009  142.7900  166.3069 C.ar    1  UNL1        0.0040
     12 C         142.5850  141.9847  166.6575 C.ar    1  UNL1        0.0113
     13 C         142.0376  142.0218  168.0535 C.2     1  UNL1        0.0760
     14 N         142.7062  142.8642  169.0991 N.2     1  UNL1       -0.1836
     15 N         142.1589  142.9013  170.4952 N.am    1  UNL1       -0.2062
     16 H         142.5977  143.4542  171.1814 H       1  UNL1        0.1772
     17 O         144.2270  141.8734  162.4692 O.3     1  UNL1       -0.4791
     18 C         143.5691  142.6734  161.3842 C.3     1  UNL1        0.1687
     19 C         142.5178  143.6856  161.7311 C.3     1  UNL1        0.0609
     20 C         141.8600  144.4856  160.6461 C.3     1  UNL1        0.0758
     21 N         142.2533  144.2733  159.2142 N.3     1  UNL1       -0.2737
     22 C         143.3044  143.2610  158.8673 C.3     1  UNL1        0.0758
     23 C         143.9624  142.4611  159.9523 C.3     1  UNL1        0.0609
     24 C         141.5953  145.0733  158.1292 C.3     1  UNL1        0.0575
     25 C         141.9886  145.5169  156.7514 C.3     1  UNL1        0.0160
     26 C         140.6648  146.2046  156.5948 C.3     1  UNL1        0.0028
     27 C         140.2714  145.7609  157.9727 C.3     1  UNL1        0.0160
@<TRIPOS>BOND
     1     1     2    2
     2     2     3    1
     3     3     4    1
     4     4     5    1
     5     5     6    1
     6     6     7    1
     7     7     8   ar
     8     8     9   ar
     9     9    17    1
    10    17    18    1
    11    18    19    1
    12    19    20    1
    13    20    21    1
    14    21    24    1
    15    24    25    1
    16    25    26    1
    17    26    27    1
    18    21    22    1
    19    22    23    1
    20     9    10   ar
    21    10    11   ar
    22    11    12   ar
    23    12    13    1
    24    13    14    2
    25    14    15    1
    26    15     2   am
    27    13     4    1
    28    12     7   ar
    29    23    18    1
    30    27    24    1
    31    15    16    1
@<TRIPOS>MOLECULE
*****
 27 31 0 0 0
SMALL
GASTEIGER

@<TRIPOS>ATOM
      1 O         143.3472  143.6586  171.0887 O.2     1  UNL1       -0.2734
      2 C         142.7160  142.8340  170.0063 C.2     1  UNL1        0.2415
      3 C         141.4037  142.1507  170.2527 C.3     1  UNL1        0.0927
      4 C         140.7725  141.3261  169.1703 C.3     1  UNL1        0.0513
      5 C         139.4601  140.6428  169.4168 C.3     1  UNL1        0.0111
      6 C         138.8289  139.8182  168.3344 C.3     1  UNL1        0.0269
      7 C         139.5101  139.6769  167.0054 C.ar    1  UNL1       -0.0180
      8 C         138.8789  138.8524  165.9230 C.ar    1  UNL1        0.0327
      9 C         139.5601  138.7111  164.5941 C.ar    1  UNL1        0.1381
     10 C         140.8724  139.3944  164.3476 C.ar    1  UNL1        0.0369
     11 C         141.5036  140.2190  165.4300 C.ar    1  UNL1        0.0040
     12 C         140.8224  140.3603  166.7589 C.ar    1  UNL1        0.0113
     13 C         141.4536  141.1848  167.8414 C.2     1  UNL1        0.0760
     14 N         142.7660  141.8682  167.5949 N.2     1  UNL1       -0.1836
     15 N         143.3972  142.6927  168.6773 N.am    1  UNL1       -0.2062
     16 H         144.2585  143.1412  168.5156 H       1  UNL1        0.1772
     17 O         138.9289  137.8865  163.5116 O.3     1  UNL1       -0.4791
     18 C         138.7906  138.4460  162.1268 C.3     1  UNL1        0.1687
     19 C         139.7395  138.0180  161.0467 C.3     1  UNL1        0.0609
     20 C         139.6012  138.5774  159.6619 C.3     1  UNL1        0.0758
     21 N         138.5140  139.5649  159.3570 N.3     1  UNL1       -0.2737
     22 C         137.5651  139.9929  160.4369 C.3     1  UNL1        0.0758
     23 C         137.7034  139.4334  161.8219 C.3     1  UNL1        0.0609
     24 C         138.3758  140.1243  157.9720 C.3     1  UNL1        0.0575
     25 C         137.5085  141.1666  157.3309 C.3     1  UNL1        0.0160
     26 C         138.1803  140.9154  156.0135 C.3     1  UNL1        0.0028
     27 C         139.0477  139.8730  156.6547 C.3     1  UNL1        0.0160
@<TRIPOS>BOND
     1     1     2    2
     2     2     3    1
     3     3     4    1
     4     4     5    1
     5     5     6    1
     6     6     7    1
     7     7     8   ar
     8     8     9   ar
     9     9    17    1
    10    17    18    1
    11    18    19    1
    12    19    20    1
    13    20    21    1
    14    21    24    1
    15    24    25    1
    16    25    26    1
    17    26    27    1
    18    21    22    1
    19    22    23    1
    20     9    10   ar
    21    10    11   ar
    22    11    12   ar
    23    12    13    1
    24    13    14    2
    25    14    15    1
    26    15     2   am
    27    13     4    1
    28    12     7   ar
    29    23    18    1
    30    27    24    1
    31    15    16    1
@<TRIPOS>MOLECULE
*****
 27 31 0 0 0
SMALL
GASTEIGER

@<TRIPOS>ATOM
      1 O         141.2829  142.1621  171.5457 O.2     1  UNL1       -0.2734
      2 C         141.0696  141.5092  170.2122 C.2     1  UNL1        0.2415
      3 C         139.7795  140.8014  169.9215 C.3     1  UNL1        0.0927
      4 C         139.5662  140.1484  168.5880 C.3     1  UNL1        0.0513
      5 C         138.2760  139.4406  168.2973 C.3     1  UNL1        0.0111
      6 C         138.0627  138.7877  166.9638 C.3     1  UNL1        0.0269
      7 C         139.1396  138.8426  165.9210 C.ar    1  UNL1       -0.0180
      8 C         138.9263  138.1896  164.5876 C.ar    1  UNL1        0.0327
      9 C         140.0032  138.2445  163.5448 C.ar    1  UNL1        0.1381
     10 C         141.2933  138.9523  163.8355 C.ar    1  UNL1        0.0369
     11 C         141.5066  139.6052  165.1690 C.ar    1  UNL1        0.0040
     12 C         140.4297  139.5503  166.2118 C.ar    1  UNL1        0.0113
     13 C         140.6430  140.2033  167.5453 C.2     1  UNL1        0.0760
     14 N         141.9332  140.9111  167.8360 N.2     1  UNL1       -0.1836
     15 N         142.1465  141.5640  169.1695 N.am    1  UNL1       -0.2062
     16 H         142.9932  142.0286  169.3603 H       1  UNL1        0.1772
     17 O         139.7899  137.5915  162.2113 O.3     1  UNL1       -0.4791
     18 C         139.2855  138.3996  161.0527 C.3     1  UNL1        0.1687
     19 C         138.0300  139.2086  161.1924 C.3     1  UNL1        0.0609
     20 C         137.5256  140.0167  160.0337 C.3     1  UNL1        0.0758
     21 N         138.2767  140.0159  158.7353 N.3     1  UNL1       -0.2737
     22 C         139.5321  139.2070  158.5955 C.3     1  UNL1        0.0758
     23 C         140.0365  138.3988  159.7542 C.3     1  UNL1        0.0609
     24 C         137.7722  140.8240  157.5766 C.3     1  UNL1        0.0575
     25 C         136.4684  140.9260  156.8423 C.3     1  UNL1        0.0160
     26 C         137.0590  141.9670  155.9380 C.3     1  UNL1        0.0028
     27 C         138.3629  141.8650  156.6724 C.3     1  UNL1        0.0160
@<TRIPOS>BOND
     1     1     2    2
     2     2     3    1
     3     3     4    1
     4     4     5    1
     5     5     6    1
     6     6     7    1
     7     7     8   ar
     8     8     9   ar
     9     9    17    1
    10    17    18    1
    11    18    19    1
    12    19    20    1
    13    20    21    1
    14    21    24    1
    15    24    25    1
    16    25    26    1
    17    26    27    1
    18    21    22    1
    19    22    23    1
    20     9    10   ar
    21    10    11   ar
    22    11    12   ar
    23    12    13    1
    24    13    14    2
    25    14    15    1
    26    15     2   am
    27    13     4    1
    28    12     7   ar
    29    23    18    1
    30    27    24    1
    31    15    16    1
@<TRIPOS>MOLECULE
*****
 27 31 0 0 0
SMALL
GASTEIGER

@<TRIPOS>ATOM
      1 O         140.3987  142.1274  172.2072 O.2     1  UNL1       -0.2734
      2 C         140.7169  141.4919  170.8863 C.2     1  UNL1        0.2415
      3 C         139.6075  141.0084  170.0000 C.3     1  UNL1        0.0927
      4 C         139.9257  140.3729  168.6791 C.3     1  UNL1        0.0513
      5 C         138.8163  139.8894  167.7928 C.3     1  UNL1        0.0111
      6 C         139.1345  139.2539  166.4718 C.3     1  UNL1        0.0269
      7 C         140.5622  139.1019  166.0372 C.ar    1  UNL1       -0.0180
      8 C         140.8804  138.4664  164.7163 C.ar    1  UNL1        0.0327
      9 C         142.3079  138.3144  164.2816 C.ar    1  UNL1        0.1381
     10 C         143.4172  138.7978  165.1679 C.ar    1  UNL1        0.0369
     11 C         143.0990  139.4333  166.4889 C.ar    1  UNL1        0.0040
     12 C         141.6715  139.5854  166.9235 C.ar    1  UNL1        0.0113
     13 C         141.3533  140.2209  168.2444 C.2     1  UNL1        0.0760
     14 N         142.4626  140.7044  169.1307 N.2     1  UNL1       -0.1836
     15 N         142.1444  141.3399  170.4517 N.am    1  UNL1       -0.2062
     16 H         142.8725  141.6572  171.0334 H       1  UNL1        0.1772
     17 O         142.6261  137.6789  162.9607 O.3     1  UNL1       -0.4791
     18 C         143.0103  138.5343  161.7900 C.3     1  UNL1        0.1687
     19 C         142.8101  138.0270  160.3926 C.3     1  UNL1        0.0609
     20 C         143.1943  138.8824  159.2219 C.3     1  UNL1        0.0758
     21 N         143.7786  140.2452  159.4485 N.3     1  UNL1       -0.2737
     22 C         143.9787  140.7526  160.8458 C.3     1  UNL1        0.0758
     23 C         143.5946  139.8971  162.0166 C.3     1  UNL1        0.0609
     24 C         144.1627  141.1007  158.2777 C.3     1  UNL1        0.0575
     25 C         144.5461  142.5394  158.0958 C.3     1  UNL1        0.0160
     26 C         144.7060  142.3104  156.6220 C.3     1  UNL1        0.0028
     27 C         144.3227  140.8717  156.8040 C.3     1  UNL1        0.0160
@<TRIPOS>BOND
     1     1     2    2
     2     2     3    1
     3     3     4    1
     4     4     5    1
     5     5     6    1
     6     6     7    1
     7     7     8   ar
     8     8     9   ar
     9     9    17    1
    10    17    18    1
    11    18    19    1
    12    19    20    1
    13    20    21    1
    14    21    24    1
    15    24    25    1
    16    25    26    1
    17    26    27    1
    18    21    22    1
    19    22    23    1
    20     9    10   ar
    21    10    11   ar
    22    11    12   ar
    23    12    13    1
    24    13    14    2
    25    14    15    1
    26    15     2   am
    27    13     4    1
    28    12     7   ar
    29    23    18    1
    30    27    24    1
    31    15    16    1
@<TRIPOS>MOLECULE
*****
 27 31 0 0 0
SMALL
GASTEIGER

@<TRIPOS>ATOM
      1 O         140.3853  140.5584  171.8504 O.2     1  UNL1       -0.2734
      2 C         141.0159  140.5049  170.4905 C.2     1  UNL1        0.2415
      3 C         140.6904  141.5558  169.4710 C.3     1  UNL1        0.0927
      4 C         141.3211  141.5024  168.1111 C.3     1  UNL1        0.0513
      5 C         140.9956  142.5534  167.0915 C.3     1  UNL1        0.0111
      6 C         141.6262  142.4999  165.7316 C.3     1  UNL1        0.0269
      7 C         142.5825  141.3954  165.3912 C.ar    1  UNL1       -0.0180
      8 C         143.2131  141.3419  164.0313 C.ar    1  UNL1        0.0327
      9 C         144.1693  140.2375  163.6909 C.ar    1  UNL1        0.1381
     10 C         144.4948  139.1866  164.7104 C.ar    1  UNL1        0.0369
     11 C         143.8641  139.2400  166.0704 C.ar    1  UNL1        0.0040
     12 C         142.9080  140.3445  166.4107 C.ar    1  UNL1        0.0113
     13 C         142.2773  140.3979  167.7707 C.2     1  UNL1        0.0760
     14 N         142.6028  139.3470  168.7902 N.2     1  UNL1       -0.1836
     15 N         141.9721  139.4005  170.1501 N.am    1  UNL1       -0.2062
     16 H         142.1858  138.7107  170.8193 H       1  UNL1        0.1772
     17 O         144.8000  140.1840  162.3310 O.3     1  UNL1       -0.4791
     18 C         144.0587  139.5630  161.1844 C.3     1  UNL1        0.1687
     19 C         143.6652  140.4007  160.0039 C.3     1  UNL1        0.0609
     20 C         142.9239  139.7797  158.8573 C.3     1  UNL1        0.0758
     21 N         142.5761  138.3210  158.8911 N.3     1  UNL1       -0.2737
     22 C         142.9696  137.4833  160.0714 C.3     1  UNL1        0.0758
     23 C         143.7109  138.1043  161.2181 C.3     1  UNL1        0.0609
     24 C         141.8347  137.7000  157.7443 C.3     1  UNL1        0.0575
     25 C         142.1579  136.6639  156.7090 C.3     1  UNL1        0.0160
     26 C         140.7863  136.8218  156.1227 C.3     1  UNL1        0.0028
     27 C         140.4631  137.8579  157.1581 C.3     1  UNL1        0.0160
@<TRIPOS>BOND
     1     1     2    2
     2     2     3    1
     3     3     4    1
     4     4     5    1
     5     5     6    1
     6     6     7    1
     7     7     8   ar
     8     8     9   ar
     9     9    17    1
    10    17    18    1
    11    18    19    1
    12    19    20    1
    13    20    21    1
    14    21    24    1
    15    24    25    1
    16    25    26    1
    17    26    27    1
    18    21    22    1
    19    22    23    1
    20     9    10   ar
    21    10    11   ar
    22    11    12   ar
    23    12    13    1
    24    13    14    2
    25    14    15    1
    26    15     2   am
    27    13     4    1
    28    12     7   ar
    29    23    18    1
    30    27    24    1
    31    15    16    1
@<TRIPOS>MOLECULE
*****
 27 31 0 0 0
SMALL
GASTEIGER

@<TRIPOS>ATOM
      1 O         141.1945  142.0163  172.0013 O.2     1  UNL1       -0.2734
      2 C         141.6239  142.1927  170.5750 C.2     1  UNL1        0.2415
      3 C         140.6079  142.1337  169.4731 C.3     1  UNL1        0.0927
      4 C         141.0373  142.3102  168.0467 C.3     1  UNL1        0.0513
      5 C         140.0212  142.2512  166.9448 C.3     1  UNL1        0.0111
      6 C         140.4506  142.4276  165.5185 C.3     1  UNL1        0.0269
      7 C         141.8961  142.6630  165.1940 C.ar    1  UNL1       -0.0180
      8 C         142.3255  142.8394  163.7677 C.ar    1  UNL1        0.0327
      9 C         143.7709  143.0749  163.4432 C.ar    1  UNL1        0.1381
     10 C         144.7869  143.1338  164.5451 C.ar    1  UNL1        0.0369
     11 C         144.3575  142.9574  165.9714 C.ar    1  UNL1        0.0040
     12 C         142.9121  142.7220  166.2959 C.ar    1  UNL1        0.0113
     13 C         142.4827  142.5456  167.7222 C.2     1  UNL1        0.0760
     14 N         143.4987  142.6046  168.8241 N.2     1  UNL1       -0.1836
     15 N         143.0693  142.4281  170.2505 N.am    1  UNL1       -0.2062
     16 H         143.7362  142.4669  170.9737 H       1  UNL1        0.1772
     17 O         144.2003  143.2513  162.0168 O.3     1  UNL1       -0.4791
     18 C         143.9190  142.1753  161.0103 C.3     1  UNL1        0.1687
     19 C         144.1279  140.7350  161.3738 C.3     1  UNL1        0.0609
     20 C         143.8466  139.6591  160.3673 C.3     1  UNL1        0.0758
     21 N         143.3563  140.0233  158.9973 N.3     1  UNL1       -0.2737
     22 C         143.1474  141.4634  158.6338 C.3     1  UNL1        0.0758
     23 C         143.4287  142.5395  159.6403 C.3     1  UNL1        0.0609
     24 C         143.0750  138.9472  157.9908 C.3     1  UNL1        0.0575
     25 C         142.6198  137.5199  158.0633 C.3     1  UNL1        0.0160
     26 C         142.6772  137.4255  156.5673 C.3     1  UNL1        0.0028
     27 C         143.1324  138.8529  156.4948 C.3     1  UNL1        0.0160
@<TRIPOS>BOND
     1     1     2    2
     2     2     3    1
     3     3     4    1
     4     4     5    1
     5     5     6    1
     6     6     7    1
     7     7     8   ar
     8     8     9   ar
     9     9    17    1
    10    17    18    1
    11    18    19    1
    12    19    20    1
    13    20    21    1
    14    21    24    1
    15    24    25    1
    16    25    26    1
    17    26    27    1
    18    21    22    1
    19    22    23    1
    20     9    10   ar
    21    10    11   ar
    22    11    12   ar
    23    12    13    1
    24    13    14    2
    25    14    15    1
    26    15     2   am
    27    13     4    1
    28    12     7   ar
    29    23    18    1
    30    27    24    1
    31    15    16    1
