@<TRIPOS>MOLECULE
*****
 33 36 0 0 0
SMALL
GASTEIGER

@<TRIPOS>ATOM
      1 C         138.1056  141.9324  162.6113 C.ar    1  UNL1        0.1626
      2 N         138.2707  141.1983  163.9089 N.ar    1  UNL1       -0.2096
      3 C         138.4949  139.7151  163.9082 C.ar    1  UNL1        0.1646
      4 C         138.5541  138.9661  162.6100 C.ar    1  UNL1        0.1194
      5 C         138.3890  139.7002  161.3124 C.ar    1  UNL1        0.0547
      6 C         138.1648  141.1834  161.3131 C.ar    1  UNL1        0.1732
      7 F         137.9997  141.9176  160.0154 F       1  UNL1       -0.2012
      8 N         138.7861  137.5171  162.9209 N.ar    1  UNL1       -0.2222
      9 C         138.8703  137.3707  164.4113 C.ar    1  UNL1        0.1800
     10 N         138.6904  138.7291  165.0216 N.ar    1  UNL1       -0.2884
     11 N         137.8814  143.4156  162.6120 N.pl3   1  UNL1       -0.2800
     12 H         136.9663  143.7751  162.5619 H       1  UNL1        0.1551
     13 C         141.2084  145.3075  163.2583 C.ar    1  UNL1        0.2214
     14 C         140.3156  144.1197  163.4631 C.ar    1  UNL1        0.0932
     15 C         139.0516  144.3509  162.6892 C.ar    1  UNL1        0.1575
     16 N         139.1632  145.6816  162.0060 N.ar    1  UNL1       -0.1550
     17 N         140.4962  146.2728  162.3577 N.ar    1  UNL1       -0.2446
     18 H         140.8428  147.1418  162.0513 H       1  UNL1        0.1920
     19 O         142.5736  145.4967  163.8500 O.3     1  UNL1       -0.4643
     20 C         144.0193  143.6841  165.0224 C.3     1  UNL1        0.0473
     21 C         143.5843  144.3910  163.7729 C.3     1  UNL1        0.1678
     22 C         144.1600  143.9922  162.4464 C.3     1  UNL1        0.0473
     23 C         138.7036  139.0458  166.4877 C.3     1  UNL1        0.1575
     24 C         139.8901  139.7331  167.0959 C.ar    1  UNL1        0.0823
     25 C         141.1361  139.9357  166.2858 C.ar    1  UNL1        0.0190
     26 C         142.3226  140.6229  166.8939 C.ar    1  UNL1        0.0325
     27 C         142.2630  141.1076  168.3123 C.ar    1  UNL1        0.1592
     28 F         143.4495  141.7948  168.9205 F       1  UNL1       -0.2025
     29 C         141.0170  140.9049  169.1224 C.ar    1  UNL1        0.1280
     30 N         139.8305  140.2177  168.5142 N.ar    1  UNL1       -0.2438
     31 C         137.5303  138.6752  167.3456 C.3     1  UNL1        0.1658
     32 O         136.9753  137.2825  167.2964 O.3     1  UNL1       -0.3796
     33 H         136.5941  137.1171  166.4199 H       1  UNL1        0.2105
@<TRIPOS>BOND
     1    20    21    1
     2    21    22    1
     3    21    19    1
     4    19    13    1
     5    13    14   ar
     6    14    15   ar
     7    15    11    1
     8    11     1    1
     9     1     2   ar
    10     2     3   ar
    11     3     4   ar
    12     4     5   ar
    13     5     6   ar
    14     6     7    1
    15     4     8   ar
    16     8     9   ar
    17     9    10   ar
    18    10    23    1
    19    23    31    1
    20    31    32    1
    21    23    24    1
    22    24    25   ar
    23    25    26   ar
    24    26    27   ar
    25    27    28    1
    26    27    29   ar
    27    29    30   ar
    28    15    16   ar
    29    16    17   ar
    30    17    13   ar
    31     6     1   ar
    32    30    24   ar
    33    10     3   ar
    34    11    12    1
    35    32    33    1
    36    17    18    1
@<TRIPOS>MOLECULE
*****
 33 36 0 0 0
SMALL
GASTEIGER

@<TRIPOS>ATOM
      1 C         140.0317  139.1805  165.2039 C.ar    1  UNL1        0.1626
      2 N         141.1407  140.0910  164.7670 N.ar    1  UNL1       -0.2096
      3 C         142.1581  139.6112  163.7746 C.ar    1  UNL1        0.1646
      4 C         142.0664  138.2209  163.2192 C.ar    1  UNL1        0.1194
      5 C         140.9574  137.3103  163.6561 C.ar    1  UNL1        0.0547
      6 C         139.9400  137.7902  164.6485 C.ar    1  UNL1        0.1732
      7 F         138.8309  136.8796  165.0855 F       1  UNL1       -0.2012
      8 N         143.2056  138.0277  162.2627 N.ar    1  UNL1       -0.2222
      9 C         144.0014  139.2987  162.2271 C.ar    1  UNL1        0.1800
     10 N         143.3540  140.2774  163.1614 N.ar    1  UNL1       -0.2884
     11 N         139.0143  139.6603  166.1963 N.pl3   1  UNL1       -0.2800
     12 H         138.0907  139.8401  165.9066 H       1  UNL1        0.1551
     13 C         140.6559  140.4823  169.6161 C.ar    1  UNL1        0.2214
     14 C         140.6878  140.4712  168.1165 C.ar    1  UNL1        0.0932
     15 C         139.4042  139.8663  167.6300 C.ar    1  UNL1        0.1575
     16 N         138.5791  139.5036  168.8289 N.ar    1  UNL1       -0.1550
     17 N         139.3527  139.8842  170.0564 N.ar    1  UNL1       -0.2446
     18 H         139.0570  139.7629  170.9876 H       1  UNL1        0.1920
     19 O         141.7374  141.0004  170.5171 O.3     1  UNL1       -0.4643
     20 C         141.6051  143.5731  170.1798 C.3     1  UNL1        0.0473
     21 C         142.4081  142.3064  170.2096 C.3     1  UNL1        0.1678
     22 C         143.8816  142.3458  169.9319 C.3     1  UNL1        0.0473
     23 C         143.8206  141.6766  163.4346 C.3     1  UNL1        0.1575
     24 C         142.9229  142.8393  163.1309 C.ar    1  UNL1        0.0823
     25 C         141.9327  142.7490  162.0079 C.ar    1  UNL1        0.0190
     26 C         141.0350  143.9117  161.7041 C.ar    1  UNL1        0.0325
     27 C         141.1276  145.1647  162.5235 C.ar    1  UNL1        0.1592
     28 F         140.2299  146.3275  162.2198 F       1  UNL1       -0.2025
     29 C         142.1178  145.2550  163.6466 C.ar    1  UNL1        0.1280
     30 N         143.0154  144.0923  163.9503 N.ar    1  UNL1       -0.2438
     31 C         145.1848  141.9130  164.0115 C.3     1  UNL1        0.1658
     32 O         146.3959  141.8349  163.1298 O.3     1  UNL1       -0.3796
     33 H         146.5084  140.9244  162.8149 H       1  UNL1        0.2105
@<TRIPOS>BOND
     1    20    21    1
     2    21    22    1
     3    21    19    1
     4    19    13    1
     5    13    14   ar
     6    14    15   ar
     7    15    11    1
     8    11     1    1
     9     1     2   ar
    10     2     3   ar
    11     3     4   ar
    12     4     5   ar
    13     5     6   ar
    14     6     7    1
    15     4     8   ar
    16     8     9   ar
    17     9    10   ar
    18    10    23    1
    19    23    31    1
    20    31    32    1
    21    23    24    1
    22    24    25   ar
    23    25    26   ar
    24    26    27   ar
    25    27    28    1
    26    27    29   ar
    27    29    30   ar
    28    15    16   ar
    29    16    17   ar
    30    17    13   ar
    31     6     1   ar
    32    30    24   ar
    33    10     3   ar
    34    11    12    1
    35    32    33    1
    36    17    18    1
@<TRIPOS>MOLECULE
*****
 33 36 0 0 0
SMALL
GASTEIGER

@<TRIPOS>ATOM
      1 C         140.5075  139.2613  164.3147 C.ar    1  UNL1        0.1626
      2 N         140.7166  140.5618  163.5972 N.ar    1  UNL1       -0.2096
      3 C         141.9670  140.7856  162.7995 C.ar    1  UNL1        0.1646
      4 C         143.0083  139.7089  162.7192 C.ar    1  UNL1        0.1194
      5 C         142.7992  138.4083  163.4368 C.ar    1  UNL1        0.0547
      6 C         141.5487  138.1846  164.2345 C.ar    1  UNL1        0.1732
      7 F         141.3395  136.8840  164.9521 F       1  UNL1       -0.2012
      8 N         144.1315  140.2131  161.8624 N.ar    1  UNL1       -0.2222
      9 C         143.7844  141.6015  161.4131 C.ar    1  UNL1        0.1800
     10 N         142.4467  141.9553  161.9922 N.ar    1  UNL1       -0.2884
     11 N         139.2570  139.0375  165.1125 N.pl3   1  UNL1       -0.2800
     12 H         138.4561  138.6645  164.6781 H       1  UNL1        0.1551
     13 C         139.8135  140.3068  168.7380 C.ar    1  UNL1        0.2214
     14 C         140.2332  140.2229  167.3004 C.ar    1  UNL1        0.0932
     15 C         139.2269  139.3821  166.5720 C.ar    1  UNL1        0.1575
     16 N         138.1853  138.9463  167.5596 N.ar    1  UNL1       -0.1550
     17 N         138.5479  139.5179  168.8982 N.ar    1  UNL1       -0.2446
     18 H         138.0436  139.3965  169.7350 H       1  UNL1        0.1920
     19 O         140.5331  141.0494  169.8247 O.3     1  UNL1       -0.4643
     20 C         140.4385  143.6253  169.4991 C.3     1  UNL1        0.0473
     21 C         141.2218  142.3461  169.5178 C.3     1  UNL1        0.1678
     22 C         142.6938  142.3637  169.2296 C.3     1  UNL1        0.0473
     23 C         141.7169  143.2513  161.7981 C.3     1  UNL1        0.1575
     24 C         140.5747  143.6115  162.7014 C.ar    1  UNL1        0.0823
     25 C         140.8303  143.9204  164.1467 C.ar    1  UNL1        0.0190
     26 C         139.6883  144.2806  165.0501 C.ar    1  UNL1        0.0325
     27 C         138.2906  144.3318  164.5078 C.ar    1  UNL1        0.1592
     28 F         137.1484  144.6920  165.4111 F       1  UNL1       -0.2025
     29 C         138.0350  144.0228  163.0624 C.ar    1  UNL1        0.1280
     30 N         139.1771  143.6627  162.1592 N.ar    1  UNL1       -0.2438
     31 C         142.1291  144.1871  160.7007 C.3     1  UNL1        0.1658
     32 O         141.4882  145.5387  160.5873 O.3     1  UNL1       -0.3796
     33 H         140.5494  145.4339  160.3671 H       1  UNL1        0.2105
@<TRIPOS>BOND
     1    20    21    1
     2    21    22    1
     3    21    19    1
     4    19    13    1
     5    13    14   ar
     6    14    15   ar
     7    15    11    1
     8    11     1    1
     9     1     2   ar
    10     2     3   ar
    11     3     4   ar
    12     4     5   ar
    13     5     6   ar
    14     6     7    1
    15     4     8   ar
    16     8     9   ar
    17     9    10   ar
    18    10    23    1
    19    23    31    1
    20    31    32    1
    21    23    24    1
    22    24    25   ar
    23    25    26   ar
    24    26    27   ar
    25    27    28    1
    26    27    29   ar
    27    29    30   ar
    28    15    16   ar
    29    16    17   ar
    30    17    13   ar
    31     6     1   ar
    32    30    24   ar
    33    10     3   ar
    34    11    12    1
    35    32    33    1
    36    17    18    1
@<TRIPOS>MOLECULE
*****
 33 36 0 0 0
SMALL
GASTEIGER

@<TRIPOS>ATOM
      1 C         141.3855  138.9983  164.7753 C.ar    1  UNL1        0.1626
      2 N         140.8156  140.3269  164.3750 N.ar    1  UNL1       -0.2096
      3 C         139.5864  140.3880  163.5175 C.ar    1  UNL1        0.1646
      4 C         138.9271  139.1207  163.0603 C.ar    1  UNL1        0.1194
      5 C         139.4970  137.7921  163.4605 C.ar    1  UNL1        0.0547
      6 C         140.7263  137.7310  164.3181 C.ar    1  UNL1        0.1732
      7 F         141.2962  136.4024  164.7183 F       1  UNL1       -0.2012
      8 N         137.7355  139.4920  162.2283 N.ar    1  UNL1       -0.2222
      9 C         137.6584  140.9890  162.1714 C.ar    1  UNL1        0.1800
     10 N         138.8023  141.5427  162.9682 N.ar    1  UNL1       -0.2884
     11 N         142.6147  138.9372  165.6328 N.pl3   1  UNL1       -0.2800
     12 H         143.4802  138.6872  165.2356 H       1  UNL1        0.1551
     13 C         141.9101  140.3077  169.1953 C.ar    1  UNL1        0.2214
     14 C         141.7001  140.3484  167.7107 C.ar    1  UNL1        0.0932
     15 C         142.5253  139.2571  167.0956 C.ar    1  UNL1        0.1575
     16 N         143.2454  138.5420  168.2001 N.ar    1  UNL1       -0.1550
     17 N         142.8652  139.1913  169.4978 N.ar    1  UNL1       -0.2446
     18 H         143.1862  138.9305  170.3912 H       1  UNL1        0.1920
     19 O         141.2764  141.2227  170.2008 O.3     1  UNL1       -0.4643
     20 C         142.9509  143.1802  170.5392 C.3     1  UNL1        0.0473
     21 C         141.5804  142.6913  170.1747 C.3     1  UNL1        0.1678
     22 C         140.5139  143.6711  169.7842 C.3     1  UNL1        0.0473
     23 C         139.1083  142.9960  163.1787 C.3     1  UNL1        0.1575
     24 C         140.5143  143.4962  163.0264 C.ar    1  UNL1        0.0823
     25 C         141.1028  144.4065  164.0631 C.ar    1  UNL1        0.0190
     26 C         142.5088  144.9067  163.9108 C.ar    1  UNL1        0.0325
     27 C         143.3261  144.4964  162.7217 C.ar    1  UNL1        0.1592
     28 F         144.7320  144.9966  162.5694 F       1  UNL1       -0.2025
     29 C         142.7374  143.5861  161.6850 C.ar    1  UNL1        0.1280
     30 N         141.3315  143.0860  161.8373 N.ar    1  UNL1       -0.2438
     31 C         138.0084  143.9492  163.5414 C.3     1  UNL1        0.1658
     32 O         137.2289  144.6407  162.4624 O.3     1  UNL1       -0.3796
     33 H         137.8133  145.2443  161.9775 H       1  UNL1        0.2105
@<TRIPOS>BOND
     1    20    21    1
     2    21    22    1
     3    21    19    1
     4    19    13    1
     5    13    14   ar
     6    14    15   ar
     7    15    11    1
     8    11     1    1
     9     1     2   ar
    10     2     3   ar
    11     3     4   ar
    12     4     5   ar
    13     5     6   ar
    14     6     7    1
    15     4     8   ar
    16     8     9   ar
    17     9    10   ar
    18    10    23    1
    19    23    31    1
    20    31    32    1
    21    23    24    1
    22    24    25   ar
    23    25    26   ar
    24    26    27   ar
    25    27    28    1
    26    27    29   ar
    27    29    30   ar
    28    15    16   ar
    29    16    17   ar
    30    17    13   ar
    31     6     1   ar
    32    30    24   ar
    33    10     3   ar
    34    11    12    1
    35    32    33    1
    36    17    18    1
@<TRIPOS>MOLECULE
*****
 33 36 0 0 0
SMALL
GASTEIGER

@<TRIPOS>ATOM
      1 C         138.6988  139.4273  163.0396 C.ar    1  UNL1        0.1626
      2 N         139.4709  140.7065  163.1717 N.ar    1  UNL1       -0.2096
      3 C         139.3775  141.7528  162.1010 C.ar    1  UNL1        0.1646
      4 C         138.5120  141.5199  160.8982 C.ar    1  UNL1        0.1194
      5 C         137.7399  140.2407  160.7661 C.ar    1  UNL1        0.0547
      6 C         137.8334  139.1944  161.8369 C.ar    1  UNL1        0.1732
      7 F         137.0613  137.9150  161.7048 F       1  UNL1       -0.2012
      8 N         138.6172  142.7249  160.0111 N.ar    1  UNL1       -0.2222
      9 C         139.5477  143.7025  160.6657 C.ar    1  UNL1        0.1800
     10 N         140.0176  143.1018  161.9573 N.ar    1  UNL1       -0.2884
     11 N         138.7923  138.3809  164.1104 N.pl3   1  UNL1       -0.2800
     12 H         138.8680  137.4305  163.8648 H       1  UNL1        0.1551
     13 C         139.3991  139.7421  167.6943 C.ar    1  UNL1        0.2214
     14 C         139.8294  139.5709  166.2676 C.ar    1  UNL1        0.0932
     15 C         138.7703  138.7826  165.5554 C.ar    1  UNL1        0.1575
     16 N         137.6856  138.4667  166.5421 N.ar    1  UNL1       -0.1550
     17 N         138.0742  139.0597  167.8639 N.ar    1  UNL1       -0.2446
     18 H         137.5514  139.0097  168.6967 H       1  UNL1        0.1920
     19 O         140.1602  140.4682  168.7636 O.3     1  UNL1       -0.4643
     20 C         142.1884  139.2030  169.7814 C.3     1  UNL1        0.0473
     21 C         141.6428  140.2785  168.8893 C.3     1  UNL1        0.1678
     22 C         142.5800  141.1641  168.1229 C.3     1  UNL1        0.0473
     23 C         140.9617  143.7382  162.9337 C.3     1  UNL1        0.1575
     24 C         142.2855  143.0956  163.2247 C.ar    1  UNL1        0.0823
     25 C         143.0972  143.5500  164.4013 C.ar    1  UNL1        0.0190
     26 C         144.4210  142.9074  164.6924 C.ar    1  UNL1        0.0325
     27 C         144.9330  141.8104  163.8066 C.ar    1  UNL1        0.1592
     28 F         146.2568  141.1677  164.0976 F       1  UNL1       -0.2025
     29 C         144.1212  141.3560  162.6300 C.ar    1  UNL1        0.1280
     30 N         142.7975  141.9986  162.3390 N.ar    1  UNL1       -0.2438
     31 C         140.5822  145.0173  163.6192 C.3     1  UNL1        0.1658
     32 O         140.7183  146.3246  162.8963 O.3     1  UNL1       -0.3796
     33 H         141.6563  146.5039  162.7262 H       1  UNL1        0.2105
@<TRIPOS>BOND
     1    20    21    1
     2    21    22    1
     3    21    19    1
     4    19    13    1
     5    13    14   ar
     6    14    15   ar
     7    15    11    1
     8    11     1    1
     9     1     2   ar
    10     2     3   ar
    11     3     4   ar
    12     4     5   ar
    13     5     6   ar
    14     6     7    1
    15     4     8   ar
    16     8     9   ar
    17     9    10   ar
    18    10    23    1
    19    23    31    1
    20    31    32    1
    21    23    24    1
    22    24    25   ar
    23    25    26   ar
    24    26    27   ar
    25    27    28    1
    26    27    29   ar
    27    29    30   ar
    28    15    16   ar
    29    16    17   ar
    30    17    13   ar
    31     6     1   ar
    32    30    24   ar
    33    10     3   ar
    34    11    12    1
    35    32    33    1
    36    17    18    1
@<TRIPOS>MOLECULE
*****
 33 36 0 0 0
SMALL
GASTEIGER

@<TRIPOS>ATOM
      1 C         143.6525  140.7681  163.7115 C.ar    1  UNL1        0.1626
      2 N         142.2323  141.1348  163.3979 N.ar    1  UNL1       -0.2096
      3 C         141.9326  142.3951  162.6417 C.ar    1  UNL1        0.1646
      4 C         143.0532  143.2887  162.1992 C.ar    1  UNL1        0.1194
      5 C         144.4735  142.9219  162.5128 C.ar    1  UNL1        0.0547
      6 C         144.7731  141.6616  163.2690 C.ar    1  UNL1        0.1732
      7 F         146.1934  141.2948  163.5827 F       1  UNL1       -0.2012
      8 N         142.4552  144.4582  161.4750 N.ar    1  UNL1       -0.2222
      9 C         140.9649  144.2875  161.4700 C.ar    1  UNL1        0.1800
     10 N         140.6420  143.0124  162.1910 N.ar    1  UNL1       -0.2884
     11 N         143.9521  139.5077  164.4677 N.pl3   1  UNL1       -0.2800
     12 H         144.4149  138.7631  164.0198 H       1  UNL1        0.1551
     13 C         142.5911  139.8604  168.0856 C.ar    1  UNL1        0.2214
     14 C         142.7719  140.3952  166.6959 C.ar    1  UNL1        0.0932
     15 C         143.5466  139.3819  165.9064 C.ar    1  UNL1        0.1575
     16 N         143.8445  138.2209  166.8082 N.ar    1  UNL1       -0.1550
     17 N         143.2540  138.5166  168.1550 N.ar    1  UNL1       -0.2446
     18 H         143.2944  137.9315  168.9457 H       1  UNL1        0.1920
     19 O         141.8734  140.5485  169.2087 O.3     1  UNL1       -0.4643
     20 C         143.4302  142.5125  169.8937 C.3     1  UNL1        0.0473
     21 C         142.0872  142.0136  169.4493 C.3     1  UNL1        0.1678
     22 C         140.9581  142.9798  169.2454 C.3     1  UNL1        0.0473
     23 C         139.2694  142.4530  162.4210 C.3     1  UNL1        0.1575
     24 C         139.0948  141.2045  163.2339 C.ar    1  UNL1        0.0823
     25 C         138.9445  141.2944  164.7236 C.ar    1  UNL1        0.0190
     26 C         138.7700  140.0460  165.5366 C.ar    1  UNL1        0.0325
     27 C         138.7458  138.7076  164.8597 C.ar    1  UNL1        0.1592
     28 F         138.5712  137.4591  165.6727 F       1  UNL1       -0.2025
     29 C         138.8961  138.6177  163.3700 C.ar    1  UNL1        0.1280
     30 N         139.0706  139.8661  162.5571 N.ar    1  UNL1       -0.2438
     31 C         138.0713  143.1420  161.8380 C.3     1  UNL1        0.1658
     32 O         137.4645  144.3177  162.5448 O.3     1  UNL1       -0.3796
     33 H         137.0892  144.0279  163.3911 H       1  UNL1        0.2105
@<TRIPOS>BOND
     1    20    21    1
     2    21    22    1
     3    21    19    1
     4    19    13    1
     5    13    14   ar
     6    14    15   ar
     7    15    11    1
     8    11     1    1
     9     1     2   ar
    10     2     3   ar
    11     3     4   ar
    12     4     5   ar
    13     5     6   ar
    14     6     7    1
    15     4     8   ar
    16     8     9   ar
    17     9    10   ar
    18    10    23    1
    19    23    31    1
    20    31    32    1
    21    23    24    1
    22    24    25   ar
    23    25    26   ar
    24    26    27   ar
    25    27    28    1
    26    27    29   ar
    27    29    30   ar
    28    15    16   ar
    29    16    17   ar
    30    17    13   ar
    31     6     1   ar
    32    30    24   ar
    33    10     3   ar
    34    11    12    1
    35    32    33    1
    36    17    18    1
@<TRIPOS>MOLECULE
*****
 33 36 0 0 0
SMALL
GASTEIGER

@<TRIPOS>ATOM
      1 C         138.5920  139.2939  164.6144 C.ar    1  UNL1        0.1626
      2 N         138.7960  140.4194  163.6440 N.ar    1  UNL1       -0.2096
      3 C         139.2364  140.1285  162.2399 C.ar    1  UNL1        0.1646
      4 C         139.4729  138.7122  161.8063 C.ar    1  UNL1        0.1194
      5 C         139.2689  137.5867  162.7767 C.ar    1  UNL1        0.0547
      6 C         138.8285  137.8777  164.1808 C.ar    1  UNL1        0.1732
      7 F         138.6245  136.7521  165.1513 F       1  UNL1       -0.2012
      8 N         139.8997  138.7328  160.3684 N.ar    1  UNL1       -0.2222
      9 C         139.9271  140.1618  159.9135 C.ar    1  UNL1        0.1800
     10 N         139.5171  141.0245  161.0701 N.ar    1  UNL1       -0.2884
     11 N         138.1516  139.5849  166.0185 N.pl3   1  UNL1       -0.2800
     12 H         137.1942  139.6912  166.2221 H       1  UNL1        0.1551
     13 C         141.2767  140.0008  168.2826 C.ar    1  UNL1        0.2214
     14 C         140.6420  139.9328  166.9252 C.ar    1  UNL1        0.0932
     15 C         139.1698  139.7138  167.1124 C.ar    1  UNL1        0.1575
     16 N         138.8948  139.6464  168.5854 N.ar    1  UNL1       -0.1550
     17 N         140.1970  139.8238  169.3086 N.ar    1  UNL1       -0.2446
     18 H         140.3211  139.8240  170.2852 H       1  UNL1        0.1920
     19 O         142.7352  140.2092  168.5644 O.3     1  UNL1       -0.4643
     20 C         143.5626  142.3475  169.7864 C.3     1  UNL1        0.0473
     21 C         143.1642  140.9018  169.8238 C.3     1  UNL1        0.1678
     22 C         143.1948  140.1488  171.1208 C.3     1  UNL1        0.0473
     23 C         139.4072  142.5204  161.0589 C.3     1  UNL1        0.1575
     24 C         139.1867  143.2659  162.3417 C.ar    1  UNL1        0.0823
     25 C         137.7923  143.5825  162.7949 C.ar    1  UNL1        0.0190
     26 C         137.5717  144.3280  164.0777 C.ar    1  UNL1        0.0325
     27 C         138.7457  144.7569  164.9073 C.ar    1  UNL1        0.1592
     28 F         138.5252  145.5024  166.1901 F       1  UNL1       -0.2025
     29 C         140.1400  144.4403  164.4539 C.ar    1  UNL1        0.1280
     30 N         140.3605  143.6948  163.1712 N.ar    1  UNL1       -0.2438
     31 C         139.5178  143.2708  159.7648 C.3     1  UNL1        0.1658
     32 O         139.7068  144.7589  159.7744 O.3     1  UNL1       -0.3796
     33 H         138.9151  145.1830  160.1409 H       1  UNL1        0.2105
@<TRIPOS>BOND
     1    20    21    1
     2    21    22    1
     3    21    19    1
     4    19    13    1
     5    13    14   ar
     6    14    15   ar
     7    15    11    1
     8    11     1    1
     9     1     2   ar
    10     2     3   ar
    11     3     4   ar
    12     4     5   ar
    13     5     6   ar
    14     6     7    1
    15     4     8   ar
    16     8     9   ar
    17     9    10   ar
    18    10    23    1
    19    23    31    1
    20    31    32    1
    21    23    24    1
    22    24    25   ar
    23    25    26   ar
    24    26    27   ar
    25    27    28    1
    26    27    29   ar
    27    29    30   ar
    28    15    16   ar
    29    16    17   ar
    30    17    13   ar
    31     6     1   ar
    32    30    24   ar
    33    10     3   ar
    34    11    12    1
    35    32    33    1
    36    17    18    1
@<TRIPOS>MOLECULE
*****
 33 36 0 0 0
SMALL
GASTEIGER

@<TRIPOS>ATOM
      1 C         139.6082  143.7156  163.4467 C.ar    1  UNL1        0.1626
      2 N         140.6098  142.8901  164.1986 N.ar    1  UNL1       -0.2096
      3 C         141.9985  143.4127  164.4185 C.ar    1  UNL1        0.1646
      4 C         142.3855  144.7608  163.8867 C.ar    1  UNL1        0.1194
      5 C         141.3839  145.5863  163.1349 C.ar    1  UNL1        0.0547
      6 C         139.9951  145.0636  162.9149 C.ar    1  UNL1        0.1732
      7 F         138.9934  145.8891  162.1631 F       1  UNL1       -0.2012
      8 N         143.8177  145.0112  164.2559 N.ar    1  UNL1       -0.2222
      9 C         144.3157  143.8178  165.0160 C.ar    1  UNL1        0.1800
     10 N         143.1915  142.8299  165.1165 N.ar    1  UNL1       -0.2884
     11 N         138.2194  143.1929  163.2268 N.pl3   1  UNL1       -0.2800
     12 H         137.4417  143.7626  163.4263 H       1  UNL1        0.1551
     13 C         138.0520  139.3839  162.4993 C.ar    1  UNL1        0.2214
     14 C         138.4616  140.5347  163.3699 C.ar    1  UNL1        0.0932
     15 C         138.0158  141.8022  162.7029 C.ar    1  UNL1        0.1575
     16 N         137.3306  141.4347  161.4202 N.ar    1  UNL1       -0.1550
     17 N         137.3530  139.9402  161.2943 N.ar    1  UNL1       -0.2446
     18 H         136.9752  139.4163  160.5513 H       1  UNL1        0.1920
     19 O         138.2981  137.9319  162.7838 O.3     1  UNL1       -0.4643
     20 C         138.9180  137.4200  165.2544 C.3     1  UNL1        0.0473
     21 C         139.3141  137.5308  163.8118 C.3     1  UNL1        0.1678
     22 C         140.7262  137.2404  163.3974 C.3     1  UNL1        0.0473
     23 C         143.2499  141.4937  165.7957 C.3     1  UNL1        0.1575
     24 C         142.7730  141.3501  167.2106 C.ar    1  UNL1        0.0823
     25 C         143.2616  142.2969  168.2664 C.ar    1  UNL1        0.0190
     26 C         142.7848  142.1534  169.6813 C.ar    1  UNL1        0.0325
     27 C         141.8193  141.0629  170.0404 C.ar    1  UNL1        0.1592
     28 F         141.3424  140.9193  171.4553 F       1  UNL1       -0.2025
     29 C         141.3308  140.1161  168.9845 C.ar    1  UNL1        0.1280
     30 N         141.8076  140.2597  167.5697 N.ar    1  UNL1       -0.2438
     31 C         143.7852  140.3012  165.0600 C.3     1  UNL1        0.1658
     32 O         143.2118  138.9397  165.3203 O.3     1  UNL1       -0.3796
     33 H         143.4135  138.6727  166.2308 H       1  UNL1        0.2105
@<TRIPOS>BOND
     1    20    21    1
     2    21    22    1
     3    21    19    1
     4    19    13    1
     5    13    14   ar
     6    14    15   ar
     7    15    11    1
     8    11     1    1
     9     1     2   ar
    10     2     3   ar
    11     3     4   ar
    12     4     5   ar
    13     5     6   ar
    14     6     7    1
    15     4     8   ar
    16     8     9   ar
    17     9    10   ar
    18    10    23    1
    19    23    31    1
    20    31    32    1
    21    23    24    1
    22    24    25   ar
    23    25    26   ar
    24    26    27   ar
    25    27    28    1
    26    27    29   ar
    27    29    30   ar
    28    15    16   ar
    29    16    17   ar
    30    17    13   ar
    31     6     1   ar
    32    30    24   ar
    33    10     3   ar
    34    11    12    1
    35    32    33    1
    36    17    18    1
@<TRIPOS>MOLECULE
*****
 33 36 0 0 0
SMALL
GASTEIGER

@<TRIPOS>ATOM
      1 C         139.5556  141.8907  164.0572 C.ar    1  UNL1        0.1626
      2 N         140.9578  141.5356  163.6600 N.ar    1  UNL1       -0.2096
      3 C         141.9359  142.6184  163.3124 C.ar    1  UNL1        0.1646
      4 C         141.5118  144.0563  163.3619 C.ar    1  UNL1        0.1194
      5 C         140.1096  144.4114  163.7591 C.ar    1  UNL1        0.0547
      6 C         139.1315  143.3285  164.1067 C.ar    1  UNL1        0.1732
      7 F         137.7292  143.6836  164.5039 F       1  UNL1       -0.2012
      8 N         142.6876  144.9003  162.9683 N.ar    1  UNL1       -0.2222
      9 C         143.8385  143.9840  162.6754 C.ar    1  UNL1        0.1800
     10 N         143.3739  142.5737  162.8881 N.ar    1  UNL1       -0.2884
     11 N         138.5776  140.8077  164.4048 N.pl3   1  UNL1       -0.2800
     12 H         137.9243  140.5010  163.7352 H       1  UNL1        0.1551
     13 C         139.1820  139.7028  168.0762 C.ar    1  UNL1        0.2214
     14 C         139.5114  140.5709  166.8982 C.ar    1  UNL1        0.0932
     15 C         138.5951  140.1922  165.7726 C.ar    1  UNL1        0.1575
     16 N         137.6993  139.0900  166.2550 N.ar    1  UNL1       -0.1550
     17 N         138.0620  138.7875  167.6787 N.ar    1  UNL1       -0.2446
     18 H         137.6393  138.1076  168.2516 H       1  UNL1        0.1920
     19 O         139.8544  139.7428  169.4164 O.3     1  UNL1       -0.4643
     20 C         142.0840  140.9571  169.9685 C.3     1  UNL1        0.0473
     21 C         140.5887  140.9767  169.8505 C.3     1  UNL1        0.1678
     22 C         139.8278  142.2301  170.1665 C.3     1  UNL1        0.0473
     23 C         144.2020  141.3360  162.7081 C.3     1  UNL1        0.1575
     24 C         143.8215  140.3236  161.6687 C.ar    1  UNL1        0.0823
     25 C         143.6352  138.8862  162.0547 C.ar    1  UNL1        0.0190
     26 C         143.2547  137.8737  161.0154 C.ar    1  UNL1        0.0325
     27 C         143.0605  138.2988  159.5900 C.ar    1  UNL1        0.1592
     28 F         142.6800  137.2864  158.5506 F       1  UNL1       -0.2025
     29 C         143.2469  139.7363  159.2041 C.ar    1  UNL1        0.1280
     30 N         143.6274  140.7486  160.2434 N.ar    1  UNL1       -0.2438
     31 C         145.4106  141.1107  163.5674 C.3     1  UNL1        0.1658
     32 O         146.7005  141.8051  163.2446 O.3     1  UNL1       -0.3796
     33 H         147.0406  141.4777  162.3972 H       1  UNL1        0.2105
@<TRIPOS>BOND
     1    20    21    1
     2    21    22    1
     3    21    19    1
     4    19    13    1
     5    13    14   ar
     6    14    15   ar
     7    15    11    1
     8    11     1    1
     9     1     2   ar
    10     2     3   ar
    11     3     4   ar
    12     4     5   ar
    13     5     6   ar
    14     6     7    1
    15     4     8   ar
    16     8     9   ar
    17     9    10   ar
    18    10    23    1
    19    23    31    1
    20    31    32    1
    21    23    24    1
    22    24    25   ar
    23    25    26   ar
    24    26    27   ar
    25    27    28    1
    26    27    29   ar
    27    29    30   ar
    28    15    16   ar
    29    16    17   ar
    30    17    13   ar
    31     6     1   ar
    32    30    24   ar
    33    10     3   ar
    34    11    12    1
    35    32    33    1
    36    17    18    1
