@<TRIPOS>MOLECULE
*****
 32 37 0 0 0
SMALL
GASTEIGER

@<TRIPOS>ATOM
      1 C         139.7711  138.6154  161.9432 C.3     1  UNL1        0.0037
      2 C         141.2452  138.8242  162.1255 C.3     1  UNL1        0.0216
      3 C         142.6561  138.9799  162.6103 C.3     1  UNL1        0.0934
      4 N         142.6617  138.7703  164.0956 N.am    1  UNL1       -0.2793
      5 C         143.8638  138.8346  164.9906 C.2     1  UNL1        0.2301
      6 O         145.2151  139.1318  164.4113 O.2     1  UNL1       -0.2745
      7 C         141.2543  138.4849  164.5287 C.3     1  UNL1        0.0934
      8 C         140.3788  138.5182  163.3111 C.3     1  UNL1        0.0216
      9 C         138.5691  138.5511  161.0482 C.3     1  UNL1        0.0048
     10 C         137.6129  139.7054  160.9923 C.3     1  UNL1        0.0263
     11 O         138.4740  145.1706  165.4670 O.2     1  UNL1       -0.2449
     12 C         138.7476  144.7006  164.0690 C.2     1  UNL1        0.3413
     13 O         139.4556  145.4787  162.9999 O.3     1  UNL1       -0.4404
     14 C         139.5067  144.6289  161.7649 C.3     1  UNL1        0.2356
     15 C         138.8302  143.3255  162.0708 C.ar    1  UNL1        0.0272
     16 C         138.5809  142.1041  161.2366 C.ar    1  UNL1       -0.0047
     17 C         137.8623  140.9270  161.8265 C.ar    1  UNL1       -0.0224
     18 C         137.3931  140.9712  163.2505 C.ar    1  UNL1       -0.0041
     19 C         137.6425  142.1927  164.0847 C.ar    1  UNL1        0.0059
     20 C         138.3610  143.3698  163.4949 C.ar    1  UNL1        0.0751
     21 C         143.7144  138.6019  166.4649 C.3     1  UNL1        0.1116
     22 C         142.9249  139.5656  167.3002 C.ar    1  UNL1       -0.0130
     23 C         142.6863  140.9628  166.8094 C.ar    1  UNL1       -0.0022
     24 C         141.8968  141.9266  167.6447 C.ar    1  UNL1        0.0190
     25 C         141.3457  141.4932  168.9708 C.ar    1  UNL1        0.0862
     26 C         141.5843  140.0960  169.4616 C.ar    1  UNL1        0.0190
     27 C         142.3739  139.1322  168.6263 C.ar    1  UNL1       -0.0022
     28 N         140.5562  142.4569  169.8061 N.ar    1  UNL1       -0.1886
     29 C         140.5843  143.9522  169.6905 C.ar    1  UNL1        0.2258
     30 N         139.6453  144.5141  170.7166 N.ar    1  UNL1       -0.1045
     31 N         139.0371  143.3661  171.4662 N.ar    1  UNL1       -0.0222
     32 N         139.6000  142.0947  170.9035 N.ar    1  UNL1       -0.0385
@<TRIPOS>BOND
     1    11    12    2
     2    12    13    1
     3    13    14    1
     4    14    15    1
     5    15    16   ar
     6    16    17   ar
     7    17    10    1
     8    10     9    1
     9     9     1    1
    10     1     2    1
    11     2     3    1
    12     3     4    1
    13     4     5   am
    14     5     6    2
    15     5    21    1
    16    21    22    1
    17    22    23   ar
    18    23    24   ar
    19    24    25   ar
    20    25    28    1
    21    28    29   ar
    22    29    30   ar
    23    30    31   ar
    24    31    32   ar
    25    25    26   ar
    26    26    27   ar
    27     4     7    1
    28     7     8    1
    29    17    18   ar
    30    18    19   ar
    31    19    20   ar
    32    20    12    1
    33    20    15   ar
    34     8     1    1
    35     8     2    1
    36    27    22   ar
    37    32    28   ar
@<TRIPOS>MOLECULE
*****
 32 37 0 0 0
SMALL
GASTEIGER

@<TRIPOS>ATOM
      1 C         139.8159  142.5986  160.8786 C.3     1  UNL1        0.0037
      2 C         140.2082  141.1595  161.0366 C.3     1  UNL1        0.0216
      3 C         140.4109  139.7302  161.4442 C.3     1  UNL1        0.0934
      4 N         139.5858  139.4765  162.6710 N.am    1  UNL1       -0.2793
      5 C         139.4902  138.1782  163.4162 C.2     1  UNL1        0.2301
      6 O         140.2653  136.9838  162.9446 O.2     1  UNL1       -0.2745
      7 C         138.8733  140.7490  163.0216 C.3     1  UNL1        0.0934
      8 C         139.2580  141.7892  162.0115 C.3     1  UNL1        0.0216
      9 C         139.9116  143.8968  160.1334 C.3     1  UNL1        0.0048
     10 C         140.9636  144.8994  160.5053 C.3     1  UNL1        0.0263
     11 O         145.0711  144.0388  166.2516 O.2     1  UNL1       -0.2449
     12 C         144.8398  143.5568  164.8500 C.2     1  UNL1        0.3413
     13 O         145.6301  142.4978  164.1402 O.3     1  UNL1       -0.4404
     14 C         145.0563  142.3357  162.7638 C.3     1  UNL1        0.2356
     15 C         143.9114  143.2945  162.6230 C.ar    1  UNL1        0.0272
     16 C         142.9734  143.5779  161.4873 C.ar    1  UNL1       -0.0047
     17 C         141.9016  144.6159  161.6410 C.ar    1  UNL1       -0.0224
     18 C         141.7678  145.3706  162.9304 C.ar    1  UNL1       -0.0041
     19 C         142.7058  145.0872  164.0661 C.ar    1  UNL1        0.0059
     20 C         143.7776  144.0492  163.9124 C.ar    1  UNL1        0.0751
     21 C         138.6194  138.0745  164.6332 C.3     1  UNL1        0.1116
     22 C         139.0360  138.7380  165.9123 C.ar    1  UNL1       -0.0130
     23 C         138.0581  138.8692  167.0422 C.ar    1  UNL1       -0.0022
     24 C         138.4747  139.5327  168.3213 C.ar    1  UNL1        0.0190
     25 C         139.8691  140.0651  168.4705 C.ar    1  UNL1        0.0862
     26 C         140.8469  139.9339  167.3406 C.ar    1  UNL1        0.0190
     27 C         140.4303  139.2703  166.0615 C.ar    1  UNL1       -0.0022
     28 N         140.2857  140.7287  169.7496 N.ar    1  UNL1       -0.1886
     29 C         141.5159  140.4118  170.5472 C.ar    1  UNL1        0.2258
     30 N         141.5357  141.3129  171.7463 N.ar    1  UNL1       -0.1045
     31 N         140.3178  142.1866  171.6897 N.ar    1  UNL1       -0.0222
     32 N         139.5452  141.8255  170.4557 N.ar    1  UNL1       -0.0385
@<TRIPOS>BOND
     1    11    12    2
     2    12    13    1
     3    13    14    1
     4    14    15    1
     5    15    16   ar
     6    16    17   ar
     7    17    10    1
     8    10     9    1
     9     9     1    1
    10     1     2    1
    11     2     3    1
    12     3     4    1
    13     4     5   am
    14     5     6    2
    15     5    21    1
    16    21    22    1
    17    22    23   ar
    18    23    24   ar
    19    24    25   ar
    20    25    28    1
    21    28    29   ar
    22    29    30   ar
    23    30    31   ar
    24    31    32   ar
    25    25    26   ar
    26    26    27   ar
    27     4     7    1
    28     7     8    1
    29    17    18   ar
    30    18    19   ar
    31    19    20   ar
    32    20    12    1
    33    20    15   ar
    34     8     1    1
    35     8     2    1
    36    27    22   ar
    37    32    28   ar
@<TRIPOS>MOLECULE
*****
 32 37 0 0 0
SMALL
GASTEIGER

@<TRIPOS>ATOM
      1 C         138.8588  143.7574  162.3511 C.3     1  UNL1        0.0037
      2 C         138.2403  142.4686  161.8969 C.3     1  UNL1        0.0216
      3 C         137.7969  141.0537  161.6702 C.3     1  UNL1        0.0934
      4 N         138.5050  140.1812  162.6639 N.am    1  UNL1       -0.2793
      5 C         138.3579  138.6940  162.7939 C.2     1  UNL1        0.2301
      6 O         137.4337  137.9488  161.8771 O.2     1  UNL1       -0.2745
      7 C         139.3861  141.0568  163.5046 C.3     1  UNL1        0.0934
      8 C         139.2224  142.4706  163.0306 C.3     1  UNL1        0.0216
      9 C         139.0059  145.2445  162.2210 C.3     1  UNL1        0.0048
     10 C         140.3618  145.8765  162.3308 C.3     1  UNL1        0.0263
     11 O         146.0922  141.6680  162.6181 O.2     1  UNL1       -0.2449
     12 C         145.1870  142.5326  163.4445 C.2     1  UNL1        0.3413
     13 O         145.3085  142.7800  164.9190 O.3     1  UNL1       -0.4404
     14 C         144.1980  143.7020  165.3273 C.3     1  UNL1        0.2356
     15 C         143.3902  144.0244  164.1052 C.ar    1  UNL1        0.0272
     16 C         142.1770  144.8827  163.9016 C.ar    1  UNL1       -0.0047
     17 C         141.5750  145.0182  162.5344 C.ar    1  UNL1       -0.0224
     18 C         142.1863  144.2955  161.3708 C.ar    1  UNL1       -0.0041
     19 C         143.3995  143.4372  161.5744 C.ar    1  UNL1        0.0059
     20 C         144.0014  143.3017  162.9415 C.ar    1  UNL1        0.0751
     21 C         139.1349  137.9522  163.8408 C.3     1  UNL1        0.1116
     22 C         139.3432  138.5640  165.1944 C.ar    1  UNL1       -0.0130
     23 C         140.7185  138.9791  165.6262 C.ar    1  UNL1       -0.0022
     24 C         140.9268  139.5909  166.9798 C.ar    1  UNL1        0.0190
     25 C         139.7599  139.7878  167.9016 C.ar    1  UNL1        0.0862
     26 C         138.3846  139.3727  167.4697 C.ar    1  UNL1        0.0190
     27 C         138.1763  138.7609  166.1161 C.ar    1  UNL1       -0.0022
     28 N         139.9682  140.3996  169.2552 N.ar    1  UNL1       -0.1886
     29 C         140.0242  141.8672  169.5601 C.ar    1  UNL1        0.2258
     30 N         140.2477  142.0259  171.0349 N.ar    1  UNL1       -0.1045
     31 N         140.3298  140.6565  171.6413 N.ar    1  UNL1       -0.0222
     32 N         140.1571  139.6514  170.5413 N.ar    1  UNL1       -0.0385
@<TRIPOS>BOND
     1    11    12    2
     2    12    13    1
     3    13    14    1
     4    14    15    1
     5    15    16   ar
     6    16    17   ar
     7    17    10    1
     8    10     9    1
     9     9     1    1
    10     1     2    1
    11     2     3    1
    12     3     4    1
    13     4     5   am
    14     5     6    2
    15     5    21    1
    16    21    22    1
    17    22    23   ar
    18    23    24   ar
    19    24    25   ar
    20    25    28    1
    21    28    29   ar
    22    29    30   ar
    23    30    31   ar
    24    31    32   ar
    25    25    26   ar
    26    26    27   ar
    27     4     7    1
    28     7     8    1
    29    17    18   ar
    30    18    19   ar
    31    19    20   ar
    32    20    12    1
    33    20    15   ar
    34     8     1    1
    35     8     2    1
    36    27    22   ar
    37    32    28   ar
@<TRIPOS>MOLECULE
*****
 32 37 0 0 0
SMALL
GASTEIGER

@<TRIPOS>ATOM
      1 C         142.2862  142.9309  159.6363 C.3     1  UNL1        0.0037
      2 C         143.5165  142.9165  160.4944 C.3     1  UNL1        0.0216
      3 C         144.6166  142.6454  161.4773 C.3     1  UNL1        0.0934
      4 N         144.2518  141.4149  162.2537 N.am    1  UNL1       -0.2793
      5 C         145.0692  140.7846  163.3422 C.2     1  UNL1        0.2301
      6 O         146.3826  141.3900  163.7400 O.2     1  UNL1       -0.2745
      7 C         142.9262  140.9255  161.7507 C.3     1  UNL1        0.0934
      8 C         142.4717  141.8535  160.6633 C.3     1  UNL1        0.0216
      9 C         141.4689  143.5612  158.5479 C.3     1  UNL1        0.0048
     10 C         140.1793  144.2507  158.8820 C.3     1  UNL1        0.0263
     11 O         138.3790  145.3191  165.6827 O.2     1  UNL1       -0.2449
     12 C         138.2409  144.3655  164.5330 C.2     1  UNL1        0.3413
     13 O         137.4913  143.0664  164.5502 O.3     1  UNL1       -0.4404
     14 C         137.6153  142.4417  163.1921 C.3     1  UNL1        0.2356
     15 C         138.4417  143.3547  162.3356 C.ar    1  UNL1        0.0272
     16 C         138.8920  143.2570  160.9082 C.ar    1  UNL1       -0.0047
     17 C         139.7290  144.3483  160.3095 C.ar    1  UNL1       -0.0224
     18 C         140.1156  145.5373  161.1382 C.ar    1  UNL1       -0.0041
     19 C         139.6653  145.6350  162.5656 C.ar    1  UNL1        0.0059
     20 C         138.8283  144.5437  163.1643 C.ar    1  UNL1        0.0751
     21 C         144.5731  139.5489  164.0327 C.3     1  UNL1        0.1116
     22 C         143.6849  139.6673  165.2356 C.ar    1  UNL1       -0.0130
     23 C         143.7595  138.6410  166.3270 C.ar    1  UNL1       -0.0022
     24 C         142.8713  138.7594  167.5299 C.ar    1  UNL1        0.0190
     25 C         141.9084  139.9042  167.6415 C.ar    1  UNL1        0.0862
     26 C         141.8338  140.9305  166.5501 C.ar    1  UNL1        0.0190
     27 C         142.7221  140.8121  165.3472 C.ar    1  UNL1       -0.0022
     28 N         141.0202  140.0226  168.8444 N.ar    1  UNL1       -0.1886
     29 C         141.4652  140.3417  170.2409 C.ar    1  UNL1        0.2258
     30 N         140.2511  140.3590  171.1216 N.ar    1  UNL1       -0.1045
     31 N         139.0558  140.0506  170.2695 N.ar    1  UNL1       -0.0222
     32 N         139.5312  139.8427  168.8621 N.ar    1  UNL1       -0.0385
@<TRIPOS>BOND
     1    11    12    2
     2    12    13    1
     3    13    14    1
     4    14    15    1
     5    15    16   ar
     6    16    17   ar
     7    17    10    1
     8    10     9    1
     9     9     1    1
    10     1     2    1
    11     2     3    1
    12     3     4    1
    13     4     5   am
    14     5     6    2
    15     5    21    1
    16    21    22    1
    17    22    23   ar
    18    23    24   ar
    19    24    25   ar
    20    25    28    1
    21    28    29   ar
    22    29    30   ar
    23    30    31   ar
    24    31    32   ar
    25    25    26   ar
    26    26    27   ar
    27     4     7    1
    28     7     8    1
    29    17    18   ar
    30    18    19   ar
    31    19    20   ar
    32    20    12    1
    33    20    15   ar
    34     8     1    1
    35     8     2    1
    36    27    22   ar
    37    32    28   ar
@<TRIPOS>MOLECULE
*****
 32 37 0 0 0
SMALL
GASTEIGER

@<TRIPOS>ATOM
      1 C         138.8419  141.2613  159.8521 C.3     1  UNL1        0.0037
      2 C         139.6406  140.0995  160.3644 C.3     1  UNL1        0.0216
      3 C         140.2413  138.9510  161.1195 C.3     1  UNL1        0.0934
      4 N         139.4609  138.7714  162.3879 N.am    1  UNL1       -0.2793
      5 C         139.7183  137.7360  163.4424 C.2     1  UNL1        0.2301
      6 O         140.8443  136.7592  163.2752 O.2     1  UNL1       -0.2745
      7 C         138.3780  139.8089  162.4168 C.3     1  UNL1        0.0934
      8 C         138.4891  140.6297  161.1661 C.3     1  UNL1        0.0216
      9 C         138.5846  142.2966  158.7977 C.3     1  UNL1        0.0048
     10 C         139.4741  143.5000  158.6953 C.3     1  UNL1        0.0263
     11 O         143.6922  145.3020  164.1352 O.2     1  UNL1       -0.2449
     12 C         143.6258  144.4865  162.8780 C.2     1  UNL1        0.3413
     13 O         144.7256  143.6306  162.3232 O.3     1  UNL1       -0.4404
     14 C         144.2274  142.9989  161.0572 C.3     1  UNL1        0.2356
     15 C         142.8197  143.4643  160.8296 C.ar    1  UNL1        0.0272
     16 C         141.8285  143.1697  159.7431 C.ar    1  UNL1       -0.0047
     17 C         140.4654  143.7946  159.7819 C.ar    1  UNL1       -0.0224
     18 C         140.0936  144.7140  160.9072 C.ar    1  UNL1       -0.0041
     19 C         141.0848  145.0086  161.9938 C.ar    1  UNL1        0.0059
     20 C         142.4479  144.3838  161.9550 C.ar    1  UNL1        0.0751
     21 C         138.8497  137.6775  164.6639 C.3     1  UNL1        0.1116
     22 C         139.1508  138.5570  165.8411 C.ar    1  UNL1       -0.0130
     23 C         140.4659  139.2735  165.9250 C.ar    1  UNL1       -0.0022
     24 C         140.7670  140.1530  167.1022 C.ar    1  UNL1        0.0190
     25 C         139.7529  140.3160  168.1955 C.ar    1  UNL1        0.0862
     26 C         138.4378  139.5994  168.1116 C.ar    1  UNL1        0.0190
     27 C         138.1368  138.7199  166.9343 C.ar    1  UNL1       -0.0022
     28 N         140.0540  141.1954  169.3727 N.ar    1  UNL1       -0.1886
     29 C         140.4434  142.6429  169.3151 C.ar    1  UNL1        0.2258
     30 N         140.6486  143.1239  170.7210 N.ar    1  UNL1       -0.1045
     31 N         140.3860  141.9738  171.6474 N.ar    1  UNL1       -0.0222
     32 N         140.0186  140.7820  170.8141 N.ar    1  UNL1       -0.0385
@<TRIPOS>BOND
     1    11    12    2
     2    12    13    1
     3    13    14    1
     4    14    15    1
     5    15    16   ar
     6    16    17   ar
     7    17    10    1
     8    10     9    1
     9     9     1    1
    10     1     2    1
    11     2     3    1
    12     3     4    1
    13     4     5   am
    14     5     6    2
    15     5    21    1
    16    21    22    1
    17    22    23   ar
    18    23    24   ar
    19    24    25   ar
    20    25    28    1
    21    28    29   ar
    22    29    30   ar
    23    30    31   ar
    24    31    32   ar
    25    25    26   ar
    26    26    27   ar
    27     4     7    1
    28     7     8    1
    29    17    18   ar
    30    18    19   ar
    31    19    20   ar
    32    20    12    1
    33    20    15   ar
    34     8     1    1
    35     8     2    1
    36    27    22   ar
    37    32    28   ar
@<TRIPOS>MOLECULE
*****
 32 37 0 0 0
SMALL
GASTEIGER

@<TRIPOS>ATOM
      1 C         140.5982  140.9211  167.6493 C.3     1  UNL1        0.0037
      2 C         141.9329  141.6016  167.7244 C.3     1  UNL1        0.0216
      3 C         143.1984  142.3773  167.5088 C.3     1  UNL1        0.0934
      4 N         143.1471  142.9753  166.1340 N.am    1  UNL1       -0.2793
      5 C         144.2071  143.8294  165.5039 C.2     1  UNL1        0.2301
      6 O         145.4588  144.1539  166.2640 O.2     1  UNL1       -0.2745
      7 C         141.8498  142.5690  165.5000 C.3     1  UNL1        0.0934
      8 C         141.0994  141.7200  166.4830 C.3     1  UNL1        0.0216
      9 C         139.5384  140.0669  168.2794 C.3     1  UNL1        0.0048
     10 C         138.5703  139.3140  167.4158 C.3     1  UNL1        0.0263
     11 O         139.2353  139.3305  160.3313 O.2     1  UNL1       -0.2449
     12 C         139.7191  138.6688  161.5875 C.2     1  UNL1        0.3413
     13 O         140.7251  137.5590  161.6683 O.3     1  UNL1       -0.4404
     14 C         140.9096  137.2051  163.1142 C.3     1  UNL1        0.2356
     15 C         140.0177  138.0960  163.9270 C.ar    1  UNL1        0.0272
     16 C         139.7805  138.2004  165.4044 C.ar    1  UNL1       -0.0047
     17 C         138.8076  139.2095  165.9383 C.ar    1  UNL1       -0.0224
     18 C         138.0718  140.1141  164.9948 C.ar    1  UNL1       -0.0041
     19 C         138.3090  140.0097  163.5174 C.ar    1  UNL1        0.0059
     20 C         139.2820  139.0007  162.9835 C.ar    1  UNL1        0.0751
     21 C         144.0152  144.3591  164.1137 C.3     1  UNL1        0.1116
     22 C         143.9637  143.4128  162.9511 C.ar    1  UNL1       -0.0130
     23 C         143.1181  143.7387  161.7557 C.ar    1  UNL1       -0.0022
     24 C         143.0667  142.7924  160.5931 C.ar    1  UNL1        0.0190
     25 C         143.8608  141.5202  160.6257 C.ar    1  UNL1        0.0862
     26 C         144.7064  141.1944  161.8210 C.ar    1  UNL1        0.0190
     27 C         144.7578  142.1407  162.9837 C.ar    1  UNL1       -0.0022
     28 N         143.8093  140.5739  159.4630 N.ar    1  UNL1       -0.1886
     29 C         143.1422  139.2304  159.4486 C.ar    1  UNL1        0.2258
     30 N         143.3365  138.6312  158.0873 N.ar    1  UNL1       -0.1045
     31 N         144.1236  139.6042  157.2605 N.ar    1  UNL1       -0.0222
     32 N         144.4158  140.8049  158.1107 N.ar    1  UNL1       -0.0385
@<TRIPOS>BOND
     1    11    12    2
     2    12    13    1
     3    13    14    1
     4    14    15    1
     5    15    16   ar
     6    16    17   ar
     7    17    10    1
     8    10     9    1
     9     9     1    1
    10     1     2    1
    11     2     3    1
    12     3     4    1
    13     4     5   am
    14     5     6    2
    15     5    21    1
    16    21    22    1
    17    22    23   ar
    18    23    24   ar
    19    24    25   ar
    20    25    28    1
    21    28    29   ar
    22    29    30   ar
    23    30    31   ar
    24    31    32   ar
    25    25    26   ar
    26    26    27   ar
    27     4     7    1
    28     7     8    1
    29    17    18   ar
    30    18    19   ar
    31    19    20   ar
    32    20    12    1
    33    20    15   ar
    34     8     1    1
    35     8     2    1
    36    27    22   ar
    37    32    28   ar
@<TRIPOS>MOLECULE
*****
 32 37 0 0 0
SMALL
GASTEIGER

@<TRIPOS>ATOM
      1 C         143.3081  142.4657  165.9236 C.3     1  UNL1        0.0037
      2 C         142.1002  141.9637  166.6577 C.3     1  UNL1        0.0216
      3 C         140.8843  141.2462  167.1642 C.3     1  UNL1        0.0934
      4 N         140.5935  140.1099  166.2292 N.am    1  UNL1       -0.2793
      5 C         139.4646  139.1302  166.3563 C.2     1  UNL1        0.2301
      6 O         138.5012  139.2404  167.5007 O.2     1  UNL1       -0.2745
      7 C         141.6297  140.1251  165.1447 C.3     1  UNL1        0.0934
      8 C         142.5609  141.2709  165.4096 C.3     1  UNL1        0.0216
      9 C         144.4369  143.4453  165.7965 C.3     1  UNL1        0.0048
     10 C         144.3153  144.6127  164.8626 C.3     1  UNL1        0.0263
     11 O         140.3911  143.8790  158.9724 O.2     1  UNL1       -0.2449
     12 C         140.4117  144.4946  160.3401 C.2     1  UNL1        0.3413
     13 O         139.3193  145.3208  160.9516 O.3     1  UNL1       -0.4404
     14 C         139.7609  145.7290  162.3258 C.3     1  UNL1        0.2356
     15 C         141.1262  145.1551  162.5635 C.ar    1  UNL1        0.0272
     16 C         142.0551  145.2286  163.7390 C.ar    1  UNL1       -0.0047
     17 C         143.3863  144.5392  163.6871 C.ar    1  UNL1       -0.0224
     18 C         143.7886  143.7764  162.4598 C.ar    1  UNL1       -0.0041
     19 C         142.8596  143.7028  161.2844 C.ar    1  UNL1        0.0059
     20 C         141.5285  144.3922  161.3363 C.ar    1  UNL1        0.0751
     21 C         139.2992  138.0404  165.3389 C.3     1  UNL1        0.1116
     22 C         139.1219  138.3873  163.8904 C.ar    1  UNL1       -0.0130
     23 C         138.1844  139.4884  163.4921 C.ar    1  UNL1       -0.0022
     24 C         138.0071  139.8352  162.0436 C.ar    1  UNL1        0.0190
     25 C         138.7673  139.0809  160.9933 C.ar    1  UNL1        0.0862
     26 C         139.7048  137.9798  161.3916 C.ar    1  UNL1        0.0190
     27 C         139.8821  137.6330  162.8402 C.ar    1  UNL1       -0.0022
     28 N         138.5900  139.4277  159.5448 N.ar    1  UNL1       -0.1886
     29 C         137.6946  140.4999  158.9982 C.ar    1  UNL1        0.2258
     30 N         137.8282  140.4981  157.5041 N.ar    1  UNL1       -0.1045
     31 N         138.8061  139.4249  157.1274 N.ar    1  UNL1       -0.0222
     32 N         139.2770  138.7634  158.3887 N.ar    1  UNL1       -0.0385
@<TRIPOS>BOND
     1    11    12    2
     2    12    13    1
     3    13    14    1
     4    14    15    1
     5    15    16   ar
     6    16    17   ar
     7    17    10    1
     8    10     9    1
     9     9     1    1
    10     1     2    1
    11     2     3    1
    12     3     4    1
    13     4     5   am
    14     5     6    2
    15     5    21    1
    16    21    22    1
    17    22    23   ar
    18    23    24   ar
    19    24    25   ar
    20    25    28    1
    21    28    29   ar
    22    29    30   ar
    23    30    31   ar
    24    31    32   ar
    25    25    26   ar
    26    26    27   ar
    27     4     7    1
    28     7     8    1
    29    17    18   ar
    30    18    19   ar
    31    19    20   ar
    32    20    12    1
    33    20    15   ar
    34     8     1    1
    35     8     2    1
    36    27    22   ar
    37    32    28   ar
@<TRIPOS>MOLECULE
*****
 32 37 0 0 0
SMALL
GASTEIGER

@<TRIPOS>ATOM
      1 C         143.4146  139.8362  159.9584 C.3     1  UNL1        0.0037
      2 C         142.5921  138.9113  160.8057 C.3     1  UNL1        0.0216
      3 C         141.9412  138.1026  161.8884 C.3     1  UNL1        0.0934
      4 N         142.5903  138.4647  163.1913 N.am    1  UNL1       -0.2793
      5 C         142.2474  137.8943  164.5357 C.2     1  UNL1        0.2301
      6 O         141.1656  136.8627  164.6590 O.2     1  UNL1       -0.2745
      7 C         143.6423  139.4973  162.9139 C.3     1  UNL1        0.0934
      8 C         143.6434  139.7733  161.4395 C.3     1  UNL1        0.0216
      9 C         143.7574  140.4066  158.6141 C.3     1  UNL1        0.0048
     10 C         143.7186  141.8902  158.3968 C.3     1  UNL1        0.0263
     11 O         138.9692  145.9027  161.8573 O.2     1  UNL1       -0.2449
     12 C         140.3469  145.3160  161.9464 C.2     1  UNL1        0.3413
     13 O         141.3029  145.4806  163.0905 O.3     1  UNL1       -0.4404
     14 C         142.5572  144.7281  162.7582 C.3     1  UNL1        0.2356
     15 C         142.3764  144.0985  161.4087 C.ar    1  UNL1        0.0272
     16 C         143.2792  143.2413  160.5720 C.ar    1  UNL1       -0.0047
     17 C         142.8159  142.7475  159.2336 C.ar    1  UNL1       -0.0224
     18 C         141.4497  143.1109  158.7319 C.ar    1  UNL1       -0.0041
     19 C         140.5470  143.9681  159.5686 C.ar    1  UNL1        0.0059
     20 C         141.0103  144.4619  160.9070 C.ar    1  UNL1        0.0751
     21 C         142.9865  138.3557  165.7567 C.3     1  UNL1        0.1116
     22 C         142.3458  139.3336  166.6964 C.ar    1  UNL1       -0.0130
     23 C         141.4580  140.4173  166.1604 C.ar    1  UNL1       -0.0022
     24 C         140.8173  141.3953  167.1001 C.ar    1  UNL1        0.0190
     25 C         141.0643  141.2896  168.5758 C.ar    1  UNL1        0.0862
     26 C         141.9522  140.2059  169.1119 C.ar    1  UNL1        0.0190
     27 C         142.5929  139.2279  168.1721 C.ar    1  UNL1       -0.0022
     28 N         140.4236  142.2675  169.5155 N.ar    1  UNL1       -0.1886
     29 C         140.5727  143.7595  169.4717 C.ar    1  UNL1        0.2258
     30 N         139.7625  144.3393  170.5931 N.ar    1  UNL1       -0.1045
     31 N         139.1128  143.2057  171.3299 N.ar    1  UNL1       -0.0222
     32 N         139.5215  141.9253  170.6639 N.ar    1  UNL1       -0.0385
@<TRIPOS>BOND
     1    11    12    2
     2    12    13    1
     3    13    14    1
     4    14    15    1
     5    15    16   ar
     6    16    17   ar
     7    17    10    1
     8    10     9    1
     9     9     1    1
    10     1     2    1
    11     2     3    1
    12     3     4    1
    13     4     5   am
    14     5     6    2
    15     5    21    1
    16    21    22    1
    17    22    23   ar
    18    23    24   ar
    19    24    25   ar
    20    25    28    1
    21    28    29   ar
    22    29    30   ar
    23    30    31   ar
    24    31    32   ar
    25    25    26   ar
    26    26    27   ar
    27     4     7    1
    28     7     8    1
    29    17    18   ar
    30    18    19   ar
    31    19    20   ar
    32    20    12    1
    33    20    15   ar
    34     8     1    1
    35     8     2    1
    36    27    22   ar
    37    32    28   ar
@<TRIPOS>MOLECULE
*****
 32 37 0 0 0
SMALL
GASTEIGER

@<TRIPOS>ATOM
      1 C         141.9209  139.9330  159.6176 C.3     1  UNL1        0.0037
      2 C         142.0179  138.8046  160.6012 C.3     1  UNL1        0.0216
      3 C         141.8836  137.8285  161.7322 C.3     1  UNL1        0.0934
      4 N         140.7983  138.3208  162.6431 N.am    1  UNL1       -0.2793
      5 C         140.3315  137.6504  163.9012 C.2     1  UNL1        0.2301
      6 O         140.9662  136.3664  164.3467 O.2     1  UNL1       -0.2745
      7 C         140.2617  139.6012  162.0750 C.3     1  UNL1        0.0934
      8 C         141.0154  139.9002  160.8130 C.3     1  UNL1        0.0216
      9 C         142.3877  140.6033  158.3596 C.3     1  UNL1        0.0048
     10 C         143.1434  141.8969  158.4350 C.3     1  UNL1        0.0263
     11 O         144.1089  145.2177  164.6537 O.2     1  UNL1       -0.2449
     12 C         143.1282  145.0041  163.5389 C.2     1  UNL1        0.3413
     13 O         141.7540  145.5982  163.4477 O.3     1  UNL1       -0.4404
     14 C         141.1262  145.1202  162.1720 C.3     1  UNL1        0.2356
     15 C         142.1124  144.2306  161.4749 C.ar    1  UNL1        0.0272
     16 C         142.0436  143.4766  160.1800 C.ar    1  UNL1       -0.0047
     17 C         143.2122  142.6509  159.7300 C.ar    1  UNL1       -0.0224
     18 C         144.4495  142.5792  160.5748 C.ar    1  UNL1       -0.0041
     19 C         144.5184  143.3331  161.8697 C.ar    1  UNL1        0.0059
     20 C         143.3498  144.1588  162.3197 C.ar    1  UNL1        0.0751
     21 C         139.2299  138.2640  164.7136 C.3     1  UNL1        0.1116
     22 C         139.5500  138.9761  165.9944 C.ar    1  UNL1       -0.0130
     23 C         138.5025  139.1110  167.0595 C.ar    1  UNL1       -0.0022
     24 C         138.8225  139.8232  168.3403 C.ar    1  UNL1        0.0190
     25 C         140.1902  140.4004  168.5560 C.ar    1  UNL1        0.0862
     26 C         141.2377  140.2656  167.4908 C.ar    1  UNL1        0.0190
     27 C         140.9175  139.5534  166.2100 C.ar    1  UNL1       -0.0022
     28 N         140.5102  141.1126  169.8367 N.ar    1  UNL1       -0.1886
     29 C         141.8824  141.3510  170.3937 C.ar    1  UNL1        0.2258
     30 N         141.7345  142.0971  171.6866 N.ar    1  UNL1       -0.1045
     31 N         140.2710  142.3198  171.9285 N.ar    1  UNL1       -0.0222
     32 N         139.5144  141.7113  170.7852 N.ar    1  UNL1       -0.0385
@<TRIPOS>BOND
     1    11    12    2
     2    12    13    1
     3    13    14    1
     4    14    15    1
     5    15    16   ar
     6    16    17   ar
     7    17    10    1
     8    10     9    1
     9     9     1    1
    10     1     2    1
    11     2     3    1
    12     3     4    1
    13     4     5   am
    14     5     6    2
    15     5    21    1
    16    21    22    1
    17    22    23   ar
    18    23    24   ar
    19    24    25   ar
    20    25    28    1
    21    28    29   ar
    22    29    30   ar
    23    30    31   ar
    24    31    32   ar
    25    25    26   ar
    26    26    27   ar
    27     4     7    1
    28     7     8    1
    29    17    18   ar
    30    18    19   ar
    31    19    20   ar
    32    20    12    1
    33    20    15   ar
    34     8     1    1
    35     8     2    1
    36    27    22   ar
    37    32    28   ar
