@<TRIPOS>MOLECULE
*****
 23 25 0 0 0
SMALL
GASTEIGER

@<TRIPOS>ATOM
      1 C         141.3349  140.9132  167.2832 C.3     1  UNL1        0.0847
      2 N         141.0838  141.3224  168.7044 N.3     1  UNL1       -0.2676
      3 C         140.3763  142.6116  168.9997 C.3     1  UNL1        0.0896
      4 C         140.1252  143.0209  170.4208 C.3     1  UNL1        0.0862
      5 N         140.5818  142.1409  171.5465 N.3     1  UNL1       -0.2951
      6 C         141.2893  140.8517  171.2511 C.3     1  UNL1        0.0862
      7 C         141.5404  140.4424  169.8301 C.3     1  UNL1        0.0896
      8 H         139.7518  141.9035  172.0898 H       1  UNL1        0.1233
      9 C         140.4717  139.8687  166.6399 C.ar    1  UNL1       -0.0075
     10 C         141.0269  139.0075  165.5444 C.ar    1  UNL1       -0.0030
     11 C         140.1636  137.9630  164.9011 C.ar    1  UNL1       -0.0003
     12 C         138.7452  137.7797  165.3532 C.ar    1  UNL1       -0.0000
     13 C         138.1900  138.6409  166.4487 C.ar    1  UNL1       -0.0003
     14 C         139.0532  139.6854  167.0920 C.ar    1  UNL1       -0.0030
     15 C         142.4491  141.5484  166.5055 C.3     1  UNL1        0.0499
     16 C         143.2834  143.3693  164.8506 C.ar    1  UNL1        0.1347
     17 C         142.9957  144.5185  163.9306 C.ar    1  UNL1        0.0366
     18 C         141.5859  144.9960  163.7453 C.ar    1  UNL1        0.0031
     19 C         140.4638  144.3244  164.4801 C.ar    1  UNL1       -0.0001
     20 C         140.7516  143.1752  165.4001 C.ar    1  UNL1       -0.0012
     21 C         142.1613  142.6977  165.5854 C.ar    1  UNL1        0.0135
     22 C         145.3175  141.9840  164.0178 C.3     1  UNL1        0.2525
     23 O         144.6933  142.8916  165.0359 O.3     1  UNL1       -0.4717
@<TRIPOS>BOND
     1    22    23    1
     2    23    16    1
     3    16    17   ar
     4    17    18   ar
     5    18    19   ar
     6    19    20   ar
     7    20    21   ar
     8    21    15    1
     9    15     1    1
    10     1     9    1
    11     9    10   ar
    12    10    11   ar
    13    11    12   ar
    14    12    13   ar
    15    13    14   ar
    16     1     2    1
    17     2     3    1
    18     3     4    1
    19     4     5    1
    20     5     6    1
    21     6     7    1
    22    21    16   ar
    23    14     9   ar
    24     7     2    1
    25     5     8    1
@<TRIPOS>MOLECULE
*****
 23 25 0 0 0
SMALL
GASTEIGER

@<TRIPOS>ATOM
      1 C         141.3331  140.9105  167.2768 C.3     1  UNL1        0.0847
      2 N         141.0833  141.3203  168.6980 N.3     1  UNL1       -0.2676
      3 C         141.5353  140.4377  169.8235 C.3     1  UNL1        0.0896
      4 C         141.2856  140.8474  171.2446 C.3     1  UNL1        0.0862
      5 N         140.5838  142.1396  171.5403 N.3     1  UNL1       -0.2951
      6 C         140.1317  143.0222  170.4148 C.3     1  UNL1        0.0862
      7 C         140.3815  142.6125  168.9937 C.3     1  UNL1        0.0896
      8 H         141.2189  142.6952  172.1133 H       1  UNL1        0.1233
      9 C         140.4676  139.8678  166.6337 C.ar    1  UNL1       -0.0075
     10 C         139.0532  139.6780  167.0956 C.ar    1  UNL1       -0.0030
     11 C         138.1877  138.6352  166.4525 C.ar    1  UNL1       -0.0003
     12 C         138.7366  137.7823  165.3474 C.ar    1  UNL1       -0.0000
     13 C         140.1510  137.9721  164.8855 C.ar    1  UNL1       -0.0003
     14 C         141.0165  139.0148  165.5286 C.ar    1  UNL1       -0.0030
     15 C         142.4484  141.5435  166.4987 C.3     1  UNL1        0.0499
     16 C         143.2865  143.3645  164.8459 C.ar    1  UNL1        0.1347
     17 C         143.0013  144.5161  163.9281 C.ar    1  UNL1        0.0366
     18 C         141.5927  144.9983  163.7452 C.ar    1  UNL1        0.0031
     19 C         140.4694  144.3290  164.4802 C.ar    1  UNL1       -0.0001
     20 C         140.7546  143.1774  165.3980 C.ar    1  UNL1       -0.0012
     21 C         142.1631  142.6952  165.5809 C.ar    1  UNL1        0.0135
     22 C         145.3198  141.9849  164.0019 C.3     1  UNL1        0.2525
     23 O         144.6950  142.8822  165.0288 O.3     1  UNL1       -0.4717
@<TRIPOS>BOND
     1    22    23    1
     2    23    16    1
     3    16    17   ar
     4    17    18   ar
     5    18    19   ar
     6    19    20   ar
     7    20    21   ar
     8    21    15    1
     9    15     1    1
    10     1     9    1
    11     9    10   ar
    12    10    11   ar
    13    11    12   ar
    14    12    13   ar
    15    13    14   ar
    16     1     2    1
    17     2     3    1
    18     3     4    1
    19     4     5    1
    20     5     6    1
    21     6     7    1
    22    21    16   ar
    23    14     9   ar
    24     7     2    1
    25     5     8    1
@<TRIPOS>MOLECULE
*****
 23 25 0 0 0
SMALL
GASTEIGER

@<TRIPOS>ATOM
      1 C         140.3932  141.0917  167.4620 C.3     1  UNL1        0.0847
      2 N         140.9769  140.9593  168.8375 N.3     1  UNL1       -0.2676
      3 C         140.4183  141.7685  169.9703 C.3     1  UNL1        0.0896
      4 C         141.0019  141.6362  171.3457 C.3     1  UNL1        0.0862
      5 N         142.1440  140.6947  171.5884 N.3     1  UNL1       -0.2951
      6 C         142.7026  139.8854  170.4556 C.3     1  UNL1        0.0862
      7 C         142.1190  140.0178  169.0802 C.3     1  UNL1        0.0896
      8 H         141.8334  140.0318  172.2986 H       1  UNL1        0.1233
      9 C         139.8415  139.8852  166.7621 C.ar    1  UNL1       -0.0075
     10 C         138.5104  139.3257  167.1684 C.ar    1  UNL1       -0.0030
     11 C         137.9587  138.1191  166.4684 C.ar    1  UNL1       -0.0003
     12 C         138.7382  137.4721  165.3622 C.ar    1  UNL1       -0.0000
     13 C         140.0693  138.0316  164.9558 C.ar    1  UNL1       -0.0003
     14 C         140.6210  139.2381  165.6557 C.ar    1  UNL1       -0.0030
     15 C         140.3613  142.4306  166.7865 C.3     1  UNL1        0.0499
     16 C         141.2390  143.7002  164.6966 C.ar    1  UNL1        0.1347
     17 C         142.3782  144.1242  163.8176 C.ar    1  UNL1        0.0366
     18 C         143.7788  143.7024  164.1497 C.ar    1  UNL1        0.0031
     19 C         144.0403  142.8568  165.3607 C.ar    1  UNL1       -0.0001
     20 C         142.9012  142.4329  166.2396 C.ar    1  UNL1       -0.0012
     21 C         141.5006  142.8546  165.9075 C.ar    1  UNL1        0.0135
     22 C         139.5900  145.0723  163.2309 C.3     1  UNL1        0.2525
     23 O         139.8383  144.1219  164.3645 O.3     1  UNL1       -0.4717
@<TRIPOS>BOND
     1    22    23    1
     2    23    16    1
     3    16    17   ar
     4    17    18   ar
     5    18    19   ar
     6    19    20   ar
     7    20    21   ar
     8    21    15    1
     9    15     1    1
    10     1     9    1
    11     9    10   ar
    12    10    11   ar
    13    11    12   ar
    14    12    13   ar
    15    13    14   ar
    16     1     2    1
    17     2     3    1
    18     3     4    1
    19     4     5    1
    20     5     6    1
    21     6     7    1
    22    21    16   ar
    23    14     9   ar
    24     7     2    1
    25     5     8    1
@<TRIPOS>MOLECULE
*****
 23 25 0 0 0
SMALL
GASTEIGER

@<TRIPOS>ATOM
      1 C         141.9623  141.0115  166.7171 C.3     1  UNL1        0.0847
      2 N         142.1695  141.1455  168.1967 N.3     1  UNL1       -0.2676
      3 C         142.5360  139.9427  169.0147 C.3     1  UNL1        0.0896
      4 C         142.7433  140.0767  170.4942 C.3     1  UNL1        0.0862
      5 N         142.5841  141.4134  171.1558 N.3     1  UNL1       -0.2951
      6 C         142.2176  142.6162  170.3378 C.3     1  UNL1        0.0862
      7 C         142.0103  142.4822  168.8583 C.3     1  UNL1        0.0896
      8 H         143.4729  141.6253  171.6091 H       1  UNL1        0.1233
      9 C         143.1195  141.1860  165.7788 C.ar    1  UNL1       -0.0075
     10 C         143.7197  139.9918  165.0979 C.ar    1  UNL1       -0.0030
     11 C         144.8769  140.1664  164.1596 C.ar    1  UNL1       -0.0003
     12 C         145.4339  141.5351  163.9023 C.ar    1  UNL1       -0.0000
     13 C         144.8337  142.7293  164.5832 C.ar    1  UNL1       -0.0003
     14 C         143.6765  142.5548  165.5215 C.ar    1  UNL1       -0.0030
     15 C         140.5978  140.7029  166.1759 C.3     1  UNL1        0.0499
     16 C         138.5029  141.4842  164.8526 C.ar    1  UNL1        0.1347
     17 C         137.6379  142.5900  164.3242 C.ar    1  UNL1        0.0366
     18 C         138.0030  144.0202  164.5908 C.ar    1  UNL1        0.0031
     19 C         139.2329  144.3447  165.3857 C.ar    1  UNL1       -0.0001
     20 C         140.0979  143.2390  165.9140 C.ar    1  UNL1       -0.0012
     21 C         139.7328  141.8088  165.6475 C.ar    1  UNL1        0.0135
     22 C         138.4113  139.4482  163.2413 C.3     1  UNL1        0.2525
     23 O         138.1378  140.0539  164.5861 O.3     1  UNL1       -0.4717
@<TRIPOS>BOND
     1    22    23    1
     2    23    16    1
     3    16    17   ar
     4    17    18   ar
     5    18    19   ar
     6    19    20   ar
     7    20    21   ar
     8    21    15    1
     9    15     1    1
    10     1     9    1
    11     9    10   ar
    12    10    11   ar
    13    11    12   ar
    14    12    13   ar
    15    13    14   ar
    16     1     2    1
    17     2     3    1
    18     3     4    1
    19     4     5    1
    20     5     6    1
    21     6     7    1
    22    21    16   ar
    23    14     9   ar
    24     7     2    1
    25     5     8    1
@<TRIPOS>MOLECULE
*****
 23 25 0 0 0
SMALL
GASTEIGER

@<TRIPOS>ATOM
      1 C         141.4225  142.1054  166.1427 C.3     1  UNL1        0.0847
      2 N         140.9134  143.2206  165.2782 N.3     1  UNL1       -0.2676
      3 C         141.8581  143.9674  164.3839 C.3     1  UNL1        0.0896
      4 C         141.3491  145.0825  163.5194 C.3     1  UNL1        0.0862
      5 N         139.8954  145.4508  163.5493 N.3     1  UNL1       -0.2951
      6 C         138.9506  144.7040  164.4436 C.3     1  UNL1        0.0862
      7 C         139.4597  143.5889  165.3081 C.3     1  UNL1        0.0896
      8 H         139.5452  145.3450  162.5971 H       1  UNL1        0.1233
      9 C         141.7786  142.3699  167.5756 C.ar    1  UNL1       -0.0075
     10 C         140.7318  142.8639  168.5296 C.ar    1  UNL1       -0.0030
     11 C         141.0878  143.1284  169.9626 C.ar    1  UNL1       -0.0003
     12 C         142.4907  142.8988  170.4415 C.ar    1  UNL1       -0.0000
     13 C         143.5375  142.4048  169.4874 C.ar    1  UNL1       -0.0003
     14 C         143.1814  142.1403  168.0545 C.ar    1  UNL1       -0.0030
     15 C         141.5756  140.7258  165.5742 C.3     1  UNL1        0.0499
     16 C         140.5158  138.4377  164.9482 C.ar    1  UNL1        0.1347
     17 C         139.3972  137.4463  165.0740 C.ar    1  UNL1        0.0366
     18 C         138.2197  137.7516  165.9516 C.ar    1  UNL1        0.0031
     19 C         138.1608  139.0483  166.7034 C.ar    1  UNL1       -0.0001
     20 C         139.2794  140.0397  166.5776 C.ar    1  UNL1       -0.0012
     21 C         140.4569  139.7344  165.7000 C.ar    1  UNL1        0.0135
     22 C         141.4961  137.9146  162.5997 C.3     1  UNL1        0.2525
     23 O         141.6934  138.1324  164.0706 O.3     1  UNL1       -0.4717
@<TRIPOS>BOND
     1    22    23    1
     2    23    16    1
     3    16    17   ar
     4    17    18   ar
     5    18    19   ar
     6    19    20   ar
     7    20    21   ar
     8    21    15    1
     9    15     1    1
    10     1     9    1
    11     9    10   ar
    12    10    11   ar
    13    11    12   ar
    14    12    13   ar
    15    13    14   ar
    16     1     2    1
    17     2     3    1
    18     3     4    1
    19     4     5    1
    20     5     6    1
    21     6     7    1
    22    21    16   ar
    23    14     9   ar
    24     7     2    1
    25     5     8    1
@<TRIPOS>MOLECULE
*****
 23 25 0 0 0
SMALL
GASTEIGER

@<TRIPOS>ATOM
      1 C         141.2694  142.0054  166.4379 C.3     1  UNL1        0.0847
      2 N         141.5954  142.4192  167.8424 N.3     1  UNL1       -0.2676
      3 C         142.9715  142.1872  168.3924 C.3     1  UNL1        0.0896
      4 C         143.2975  142.6009  169.7968 C.3     1  UNL1        0.0862
      5 N         142.2474  143.2467  170.6513 N.3     1  UNL1       -0.2951
      6 C         140.8713  143.4788  170.1013 C.3     1  UNL1        0.0862
      7 C         140.5453  143.0650  168.6969 C.3     1  UNL1        0.0896
      8 H         142.6119  144.1586  170.9270 H       1  UNL1        0.1233
      9 C         140.7402  143.0145  165.4624 C.ar    1  UNL1       -0.0075
     10 C         141.6876  143.7785  164.5856 C.ar    1  UNL1       -0.0030
     11 C         141.1583  144.7877  163.6101 C.ar    1  UNL1       -0.0003
     12 C         139.6818  145.0328  163.5114 C.ar    1  UNL1       -0.0000
     13 C         138.7345  144.2688  164.3883 C.ar    1  UNL1       -0.0003
     14 C         139.2636  143.2597  165.3637 C.ar    1  UNL1       -0.0030
     15 C         141.4726  140.5825  166.0090 C.3     1  UNL1        0.0499
     16 C         140.2840  138.4688  165.0765 C.ar    1  UNL1        0.1347
     17 C         139.1349  137.5051  165.1062 C.ar    1  UNL1        0.0366
     18 C         138.0254  137.6914  166.0982 C.ar    1  UNL1        0.0031
     19 C         138.0649  138.8414  167.0605 C.ar    1  UNL1       -0.0001
     20 C         139.2139  139.8051  167.0308 C.ar    1  UNL1       -0.0012
     21 C         140.3235  139.6188  166.0387 C.ar    1  UNL1        0.0135
     22 C         141.1607  137.4760  162.8413 C.3     1  UNL1        0.2525
     23 O         141.3936  138.2826  164.0844 O.3     1  UNL1       -0.4717
@<TRIPOS>BOND
     1    22    23    1
     2    23    16    1
     3    16    17   ar
     4    17    18   ar
     5    18    19   ar
     6    19    20   ar
     7    20    21   ar
     8    21    15    1
     9    15     1    1
    10     1     9    1
    11     9    10   ar
    12    10    11   ar
    13    11    12   ar
    14    12    13   ar
    15    13    14   ar
    16     1     2    1
    17     2     3    1
    18     3     4    1
    19     4     5    1
    20     5     6    1
    21     6     7    1
    22    21    16   ar
    23    14     9   ar
    24     7     2    1
    25     5     8    1
@<TRIPOS>MOLECULE
*****
 23 25 0 0 0
SMALL
GASTEIGER

@<TRIPOS>ATOM
      1 C         140.6471  142.0983  167.0976 C.3     1  UNL1        0.0847
      2 N         141.4744  142.4617  168.2950 N.3     1  UNL1       -0.2676
      3 C         140.8752  143.2800  169.4002 C.3     1  UNL1        0.0896
      4 C         141.7024  143.6434  170.5975 C.3     1  UNL1        0.0862
      5 N         143.1288  143.1885  170.6897 N.3     1  UNL1       -0.2951
      6 C         143.7279  142.3702  169.5845 C.3     1  UNL1        0.0862
      7 C         142.9008  142.0068  168.3872 C.3     1  UNL1        0.0896
      8 H         143.2064  142.6338  171.5421 H       1  UNL1        0.1233
      9 C         140.6044  143.0133  165.9099 C.ar    1  UNL1       -0.0075
     10 C         139.3721  143.8214  165.6295 C.ar    1  UNL1       -0.0030
     11 C         139.3294  144.7365  164.4417 C.ar    1  UNL1       -0.0003
     12 C         140.5190  144.8435  163.5343 C.ar    1  UNL1       -0.0000
     13 C         141.7512  144.0354  163.8146 C.ar    1  UNL1       -0.0003
     14 C         141.7940  143.1204  165.0023 C.ar    1  UNL1       -0.0030
     15 C         139.8626  140.8198  167.0881 C.3     1  UNL1        0.0499
     16 C         139.2880  138.6959  165.7065 C.ar    1  UNL1        0.1347
     17 C         139.7245  137.5546  164.8366 C.ar    1  UNL1        0.0366
     18 C         141.1725  137.3957  164.4786 C.ar    1  UNL1        0.0031
     19 C         142.1838  138.3782  164.9903 C.ar    1  UNL1       -0.0001
     20 C         141.7472  139.5196  165.8601 C.ar    1  UNL1       -0.0012
     21 C         140.2993  139.6784  166.2182 C.ar    1  UNL1        0.0135
     22 C         137.2780  138.1335  167.2536 C.3     1  UNL1        0.2525
     23 O         137.8400  138.8548  166.0646 O.3     1  UNL1       -0.4717
@<TRIPOS>BOND
     1    22    23    1
     2    23    16    1
     3    16    17   ar
     4    17    18   ar
     5    18    19   ar
     6    19    20   ar
     7    20    21   ar
     8    21    15    1
     9    15     1    1
    10     1     9    1
    11     9    10   ar
    12    10    11   ar
    13    11    12   ar
    14    12    13   ar
    15    13    14   ar
    16     1     2    1
    17     2     3    1
    18     3     4    1
    19     4     5    1
    20     5     6    1
    21     6     7    1
    22    21    16   ar
    23    14     9   ar
    24     7     2    1
    25     5     8    1
@<TRIPOS>MOLECULE
*****
 23 25 0 0 0
SMALL
GASTEIGER

@<TRIPOS>ATOM
      1 C         140.7858  140.5691  165.5639 C.3     1  UNL1        0.0847
      2 N         140.9625  139.4786  164.5492 N.3     1  UNL1       -0.2676
      3 C         142.3157  139.2172  163.9571 C.3     1  UNL1        0.0896
      4 C         142.4924  138.1267  162.9424 C.3     1  UNL1        0.0862
      5 N         141.3160  137.2977  162.5198 N.3     1  UNL1       -0.2951
      6 C         139.9628  137.5591  163.1119 C.3     1  UNL1        0.0862
      7 C         139.7860  138.6495  164.1266 C.3     1  UNL1        0.0896
      8 H         141.5479  136.3274  162.7323 H       1  UNL1        0.1233
      9 C         140.9640  140.2716  167.0233 C.ar    1  UNL1       -0.0075
     10 C         139.8191  140.4639  167.9732 C.ar    1  UNL1       -0.0030
     11 C         139.9974  140.1664  169.4326 C.ar    1  UNL1       -0.0003
     12 C         141.3205  139.6767  169.9420 C.ar    1  UNL1       -0.0000
     13 C         142.4654  139.4845  168.9921 C.ar    1  UNL1       -0.0003
     14 C         142.2872  139.7819  167.5328 C.ar    1  UNL1       -0.0030
     15 C         140.4309  141.9570  165.1193 C.3     1  UNL1        0.0499
     16 C         141.1640  144.2715  164.1943 C.ar    1  UNL1        0.1347
     17 C         142.2485  145.2511  163.8561 C.ar    1  UNL1        0.0366
     18 C         143.6844  144.8956  164.1047 C.ar    1  UNL1        0.0031
     19 C         144.0358  143.5606  164.6914 C.ar    1  UNL1       -0.0001
     20 C         142.9513  142.5810  165.0296 C.ar    1  UNL1       -0.0012
     21 C         141.5154  142.9365  164.7811 C.ar    1  UNL1        0.0135
     22 C         139.2571  144.9141  162.5509 C.3     1  UNL1        0.2525
     23 O         139.7280  144.6270  163.9458 O.3     1  UNL1       -0.4717
@<TRIPOS>BOND
     1    22    23    1
     2    23    16    1
     3    16    17   ar
     4    17    18   ar
     5    18    19   ar
     6    19    20   ar
     7    20    21   ar
     8    21    15    1
     9    15     1    1
    10     1     9    1
    11     9    10   ar
    12    10    11   ar
    13    11    12   ar
    14    12    13   ar
    15    13    14   ar
    16     1     2    1
    17     2     3    1
    18     3     4    1
    19     4     5    1
    20     5     6    1
    21     6     7    1
    22    21    16   ar
    23    14     9   ar
    24     7     2    1
    25     5     8    1
@<TRIPOS>MOLECULE
*****
 23 25 0 0 0
SMALL
GASTEIGER

@<TRIPOS>ATOM
      1 C         141.6017  141.7638  164.5816 C.3     1  UNL1        0.0847
      2 N         142.7909  142.0809  163.7240 N.3     1  UNL1       -0.2676
      3 C         143.0658  143.4984  163.3176 C.3     1  UNL1        0.0896
      4 C         144.2549  143.8155  162.4600 C.3     1  UNL1        0.0862
      5 N         145.1691  142.7152  162.0089 N.3     1  UNL1       -0.2951
      6 C         144.8941  141.2977  162.4154 C.3     1  UNL1        0.0862
      7 C         143.7050  140.9806  163.2729 C.3     1  UNL1        0.0896
      8 H         146.1004  142.9455  162.3554 H       1  UNL1        0.1233
      9 C         140.3433  142.5689  164.4463 C.ar    1  UNL1       -0.0075
     10 C         140.0570  143.6808  165.4114 C.ar    1  UNL1       -0.0030
     11 C         138.7986  144.4860  165.2761 C.ar    1  UNL1       -0.0003
     12 C         137.8266  144.1791  164.1756 C.ar    1  UNL1       -0.0000
     13 C         138.1130  143.0672  163.2104 C.ar    1  UNL1       -0.0003
     14 C         139.3713  142.2621  163.3457 C.ar    1  UNL1       -0.0030
     15 C         141.6709  140.6415  165.5744 C.3     1  UNL1        0.0499
     16 C         140.1627  138.6400  164.8892 C.ar    1  UNL1        0.1347
     17 C         138.9596  137.7774  165.1312 C.ar    1  UNL1        0.0366
     18 C         138.0616  138.0539  166.3004 C.ar    1  UNL1        0.0031
     19 C         138.3666  139.1929  167.2276 C.ar    1  UNL1       -0.0001
     20 C         139.5697  140.0554  166.9856 C.ar    1  UNL1       -0.0012
     21 C         140.4677  139.7789  165.8164 C.ar    1  UNL1        0.0135
     22 C         140.7037  138.8858  162.3600 C.3     1  UNL1        0.2525
     23 O         141.0609  138.3635  163.7200 O.3     1  UNL1       -0.4717
@<TRIPOS>BOND
     1    22    23    1
     2    23    16    1
     3    16    17   ar
     4    17    18   ar
     5    18    19   ar
     6    19    20   ar
     7    20    21   ar
     8    21    15    1
     9    15     1    1
    10     1     9    1
    11     9    10   ar
    12    10    11   ar
    13    11    12   ar
    14    12    13   ar
    15    13    14   ar
    16     1     2    1
    17     2     3    1
    18     3     4    1
    19     4     5    1
    20     5     6    1
    21     6     7    1
    22    21    16   ar
    23    14     9   ar
    24     7     2    1
    25     5     8    1
