@<TRIPOS>MOLECULE
*****
 27 31 0 0 0
SMALL
GASTEIGER

@<TRIPOS>ATOM
      1 C         141.9972  140.9722  169.1101 C.2     1  UNL1        0.1222
      2 C         140.8151  141.8672  169.3375 C.2     1  UNL1        0.0328
      3 C         140.2695  142.6904  168.2085 C.2     1  UNL1        0.0037
      4 C         140.9061  142.6188  166.8522 C.2     1  UNL1        0.0114
      5 C         140.5908  143.3080  165.5577 C.2     1  UNL1       -0.0025
      6 C         141.5781  142.8390  164.5304 C.2     1  UNL1        0.0920
      7 N         142.5035  141.8599  165.1899 N.2     1  UNL1       -0.2505
      8 C         142.0882  141.7238  166.6248 C.2     1  UNL1        0.0660
      9 C         142.6337  140.9006  167.7538 C.3     1  UNL1        0.1095
     10 C         141.5068  143.3641  163.1271 C.3     1  UNL1        0.1939
     11 N         140.4482  144.3582  162.7511 N.am    1  UNL1       -0.2562
     12 C         139.4609  144.8272  163.7785 C.3     1  UNL1        0.1003
     13 C         139.5323  144.3020  165.1818 C.3     1  UNL1        0.0493
     14 C         140.3769  144.8833  161.3479 C.2     1  UNL1        0.2546
     15 O         139.3184  145.8774  160.9720 O.2     1  UNL1       -0.2697
     16 C         141.3642  144.4143  160.3205 C.ar    1  UNL1        0.1008
     17 C         141.2929  144.9394  158.9173 C.ar    1  UNL1        0.1442
     18 C         142.2801  144.4705  157.8899 C.ar    1  UNL1        0.0371
     19 C         143.3386  143.4764  158.2659 C.ar    1  UNL1        0.0044
     20 C         143.4099  142.9513  159.6692 C.ar    1  UNL1        0.0149
     21 C         142.4227  143.4203  160.6966 C.ar    1  UNL1        0.0566
     22 N         142.4940  142.8952  162.0998 N.pl3   1  UNL1       -0.2867
     23 C         143.5525  141.9011  162.4757 C.3     1  UNL1        0.1140
     24 C         142.6447  138.6590  170.0998 C.3     1  UNL1        0.2520
     25 O         142.5427  140.1490  170.2391 O.2     1  UNL1       -0.4753
     26 O         140.2343  145.9335  158.5413 O.3     1  UNL1       -0.4712
     27 C         140.0364  146.3105  157.1031 C.3     1  UNL1        0.2525
@<TRIPOS>BOND
     1    24    25    1
     2    25     1    1
     3     1     2    2
     4     2     3    1
     5     3     4    2
     6     4     5    1
     7     5     6    2
     8     6     7    1
     9     7     8    2
    10     8     9    1
    11     6    10    1
    12    10    11    1
    13    11    12    1
    14    12    13    1
    15    11    14   am
    16    14    15    2
    17    14    16    1
    18    16    17   ar
    19    17    26    1
    20    26    27    1
    21    17    18   ar
    22    18    19   ar
    23    19    20   ar
    24    20    21   ar
    25    21    22    1
    26    22    23    1
    27     9     1    1
    28    10    22    1
    29     8     4    1
    30    21    16   ar
    31    13     5    1
@<TRIPOS>MOLECULE
*****
 27 31 0 0 0
SMALL
GASTEIGER

@<TRIPOS>ATOM
      1 C         141.5613  139.7990  168.8912 C.2     1  UNL1        0.1222
      2 C         140.1165  140.1980  168.8339 C.2     1  UNL1        0.0328
      3 C         139.3919  140.2049  167.5205 C.2     1  UNL1        0.0037
      4 C         140.1121  139.8129  166.2645 C.2     1  UNL1        0.0114
      5 C         139.6633  139.7248  164.8360 C.2     1  UNL1       -0.0025
      6 C         140.8307  139.2713  164.0104 C.2     1  UNL1        0.0920
      7 N         142.0010  139.0792  164.9287 N.2     1  UNL1       -0.2505
      8 C         141.5569  139.4139  166.3219 C.2     1  UNL1        0.0660
      9 C         142.2815  139.4069  167.6352 C.3     1  UNL1        0.1095
     10 C         140.6772  139.0919  162.5291 C.3     1  UNL1        0.1939
     11 N         139.3562  139.3660  161.8733 N.am    1  UNL1       -0.2562
     12 C         138.1888  139.8195  162.6989 C.3     1  UNL1        0.1003
     13 C         138.3423  139.9989  164.1802 C.3     1  UNL1        0.0493
     14 C         139.2027  139.1866  160.3920 C.2     1  UNL1        0.2546
     15 O         137.8817  139.4607  159.7363 O.2     1  UNL1       -0.2697
     16 C         140.3701  138.7331  159.5665 C.ar    1  UNL1        0.1008
     17 C         140.2166  138.5537  158.0852 C.ar    1  UNL1        0.1442
     18 C         141.3840  138.1003  157.2596 C.ar    1  UNL1        0.0371
     19 C         142.7049  137.8262  157.9154 C.ar    1  UNL1        0.0044
     20 C         142.8584  138.0056  159.3968 C.ar    1  UNL1        0.0149
     21 C         141.6910  138.4591  160.2223 C.ar    1  UNL1        0.0566
     22 N         141.8445  138.6385  161.7036 N.pl3   1  UNL1       -0.2867
     23 C         143.1655  138.3644  162.3593 C.3     1  UNL1        0.1140
     24 C         142.0520  140.8930  171.1960 C.3     1  UNL1        0.2520
     25 O         142.2859  139.7920  170.2046 O.2     1  UNL1       -0.4753
     26 O         138.8956  138.8278  157.4295 O.3     1  UNL1       -0.4712
     27 C         138.7944  139.8665  156.3520 C.3     1  UNL1        0.2525
@<TRIPOS>BOND
     1    24    25    1
     2    25     1    1
     3     1     2    2
     4     2     3    1
     5     3     4    2
     6     4     5    1
     7     5     6    2
     8     6     7    1
     9     7     8    2
    10     8     9    1
    11     6    10    1
    12    10    11    1
    13    11    12    1
    14    12    13    1
    15    11    14   am
    16    14    15    2
    17    14    16    1
    18    16    17   ar
    19    17    26    1
    20    26    27    1
    21    17    18   ar
    22    18    19   ar
    23    19    20   ar
    24    20    21   ar
    25    21    22    1
    26    22    23    1
    27     9     1    1
    28    10    22    1
    29     8     4    1
    30    21    16   ar
    31    13     5    1
@<TRIPOS>MOLECULE
*****
 27 31 0 0 0
SMALL
GASTEIGER

@<TRIPOS>ATOM
      1 C         139.2913  139.9211  167.6414 C.2     1  UNL1        0.1222
      2 C         138.4372  138.8457  167.0383 C.2     1  UNL1        0.0328
      3 C         138.1041  138.8840  165.5762 C.2     1  UNL1        0.0037
      4 C         138.6251  139.9979  164.7173 C.2     1  UNL1        0.0114
      5 C         138.4643  140.2982  163.2565 C.2     1  UNL1       -0.0025
      6 C         139.2191  141.5594  162.9568 C.2     1  UNL1        0.0920
      7 N         139.8464  142.0385  164.2323 N.2     1  UNL1       -0.2505
      8 C         139.4792  141.0733  165.3204 C.2     1  UNL1        0.0660
      9 C         139.8123  141.0350  166.7824 C.3     1  UNL1        0.1095
     10 C         139.2378  142.1086  161.5610 C.3     1  UNL1        0.1939
     11 N         138.5016  141.3966  160.4650 N.am    1  UNL1       -0.2562
     12 C         137.7468  140.1355  160.7647 C.3     1  UNL1        0.1003
     13 C         137.7282  139.5863  162.1605 C.3     1  UNL1        0.0493
     14 C         138.5202  141.9458  159.0693 C.2     1  UNL1        0.2546
     15 O         137.7840  141.2338  157.9733 O.2     1  UNL1       -0.2697
     16 C         139.2750  143.2069  158.7695 C.ar    1  UNL1        0.1008
     17 C         139.2936  143.7561  157.3738 C.ar    1  UNL1        0.1442
     18 C         140.0484  145.0173  157.0741 C.ar    1  UNL1        0.0371
     19 C         140.7845  145.7291  158.1701 C.ar    1  UNL1        0.0044
     20 C         140.7659  145.1800  159.5659 C.ar    1  UNL1        0.0149
     21 C         140.0111  143.9188  159.8656 C.ar    1  UNL1        0.0566
     22 N         139.9925  143.3696  161.2613 N.pl3   1  UNL1       -0.2867
     23 C         140.7287  144.0816  162.3573 C.3     1  UNL1        0.1140
     24 C         141.0575  139.8679  169.5460 C.3     1  UNL1        0.2520
     25 O         139.6244  139.8828  169.1034 O.2     1  UNL1       -0.4753
     26 O         138.5574  143.0441  156.2779 O.3     1  UNL1       -0.4712
     27 C         137.4134  143.7193  155.5813 C.3     1  UNL1        0.2525
@<TRIPOS>BOND
     1    24    25    1
     2    25     1    1
     3     1     2    2
     4     2     3    1
     5     3     4    2
     6     4     5    1
     7     5     6    2
     8     6     7    1
     9     7     8    2
    10     8     9    1
    11     6    10    1
    12    10    11    1
    13    11    12    1
    14    12    13    1
    15    11    14   am
    16    14    15    2
    17    14    16    1
    18    16    17   ar
    19    17    26    1
    20    26    27    1
    21    17    18   ar
    22    18    19   ar
    23    19    20   ar
    24    20    21   ar
    25    21    22    1
    26    22    23    1
    27     9     1    1
    28    10    22    1
    29     8     4    1
    30    21    16   ar
    31    13     5    1
@<TRIPOS>MOLECULE
*****
 27 31 0 0 0
SMALL
GASTEIGER

@<TRIPOS>ATOM
      1 C         140.3774  141.4566  169.3827 C.2     1  UNL1        0.1222
      2 C         139.6298  140.1933  169.0747 C.2     1  UNL1        0.0328
      3 C         139.2042  139.8979  167.6669 C.2     1  UNL1        0.0037
      4 C         139.5263  140.8658  166.5673 C.2     1  UNL1        0.0114
      5 C         139.2384  140.8448  165.0953 C.2     1  UNL1       -0.0025
      6 C         139.8082  142.0951  164.4936 C.2     1  UNL1        0.0920
      7 N         140.4481  142.8890  165.5937 N.2     1  UNL1       -0.2505
      8 C         140.2739  142.1292  166.8753 C.2     1  UNL1        0.0660
      9 C         140.6995  142.4246  168.2830 C.3     1  UNL1        0.1095
     10 C         139.6706  142.3492  163.0217 C.3     1  UNL1        0.1939
     11 N         138.9632  141.3530  162.1515 N.am    1  UNL1       -0.2562
     12 C         138.3935  140.1026  162.7532 C.3     1  UNL1        0.1003
     13 C         138.5311  139.8485  164.2252 C.3     1  UNL1        0.0493
     14 C         138.8257  141.6071  160.6796 C.2     1  UNL1        0.2546
     15 O         138.1184  140.6109  159.8094 O.2     1  UNL1       -0.2697
     16 C         139.3954  142.8575  160.0779 C.ar    1  UNL1        0.1008
     17 C         139.2578  143.1116  158.6060 C.ar    1  UNL1        0.1442
     18 C         139.8275  144.3620  158.0043 C.ar    1  UNL1        0.0371
     19 C         140.5348  145.3581  158.8745 C.ar    1  UNL1        0.0044
     20 C         140.6724  145.1040  160.3465 C.ar    1  UNL1        0.0149
     21 C         140.1027  143.8536  160.9482 C.ar    1  UNL1        0.0566
     22 N         140.2403  143.5995  162.4201 N.pl3   1  UNL1       -0.2867
     23 C         140.9476  144.5958  163.2902 C.3     1  UNL1        0.1140
     24 C         142.2106  142.1866  171.0728 C.3     1  UNL1        0.2520
     25 O         140.8030  141.7520  170.7904 O.2     1  UNL1       -0.4753
     26 O         138.5505  142.1154  157.7358 O.3     1  UNL1       -0.4712
     27 C         137.3911  142.5492  156.8887 C.3     1  UNL1        0.2525
@<TRIPOS>BOND
     1    24    25    1
     2    25     1    1
     3     1     2    2
     4     2     3    1
     5     3     4    2
     6     4     5    1
     7     5     6    2
     8     6     7    1
     9     7     8    2
    10     8     9    1
    11     6    10    1
    12    10    11    1
    13    11    12    1
    14    12    13    1
    15    11    14   am
    16    14    15    2
    17    14    16    1
    18    16    17   ar
    19    17    26    1
    20    26    27    1
    21    17    18   ar
    22    18    19   ar
    23    19    20   ar
    24    20    21   ar
    25    21    22    1
    26    22    23    1
    27     9     1    1
    28    10    22    1
    29     8     4    1
    30    21    16   ar
    31    13     5    1
@<TRIPOS>MOLECULE
*****
 27 31 0 0 0
SMALL
GASTEIGER

@<TRIPOS>ATOM
      1 C         140.2958  139.9062  169.1536 C.2     1  UNL1        0.1222
      2 C         141.7884  139.7693  169.2116 C.2     1  UNL1        0.0328
      3 C         142.5761  139.6041  167.9458 C.2     1  UNL1        0.0037
      4 C         141.8712  139.5758  166.6221 C.2     1  UNL1        0.0114
      5 C         142.3779  139.4272  165.2181 C.2     1  UNL1       -0.0025
      6 C         141.1985  139.4723  164.2924 C.2     1  UNL1        0.0920
      7 N         139.9628  139.6487  165.1243 N.2     1  UNL1       -0.2505
      8 C         140.3786  139.7127  166.5641 C.2     1  UNL1        0.0660
      9 C         139.5909  139.8779  167.8299 C.3     1  UNL1        0.1095
     10 C         141.4020  139.3468  162.8116 C.3     1  UNL1        0.1939
     11 N         142.7851  139.1763  162.2564 N.am    1  UNL1       -0.2562
     12 C         143.9646  139.1312  163.1821 C.3     1  UNL1        0.1003
     13 C         143.7609  139.2566  164.6630 C.3     1  UNL1        0.0493
     14 C         142.9887  139.0509  160.7756 C.2     1  UNL1        0.2546
     15 O         144.3717  138.8803  160.2205 O.2     1  UNL1       -0.2697
     16 C         141.8093  139.0960  159.8499 C.ar    1  UNL1        0.1008
     17 C         142.0128  138.9705  158.3691 C.ar    1  UNL1        0.1442
     18 C         140.8334  139.0156  157.4434 C.ar    1  UNL1        0.0371
     19 C         139.4504  139.1862  157.9986 C.ar    1  UNL1        0.0044
     20 C         139.2468  139.3116  159.4795 C.ar    1  UNL1        0.0149
     21 C         140.4263  139.2665  160.4052 C.ar    1  UNL1        0.0566
     22 N         140.2227  139.3919  161.8860 N.pl3   1  UNL1       -0.2867
     23 C         138.8397  139.5625  162.4411 C.3     1  UNL1        0.1140
     24 C         138.0087  140.0659  170.3758 C.3     1  UNL1        0.2520
     25 O         139.5081  140.0714  170.4194 O.2     1  UNL1       -0.4753
     26 O         143.3959  138.8000  157.8140 O.3     1  UNL1       -0.4712
     27 C         143.9204  139.7693  156.7965 C.3     1  UNL1        0.2525
@<TRIPOS>BOND
     1    24    25    1
     2    25     1    1
     3     1     2    2
     4     2     3    1
     5     3     4    2
     6     4     5    1
     7     5     6    2
     8     6     7    1
     9     7     8    2
    10     8     9    1
    11     6    10    1
    12    10    11    1
    13    11    12    1
    14    12    13    1
    15    11    14   am
    16    14    15    2
    17    14    16    1
    18    16    17   ar
    19    17    26    1
    20    26    27    1
    21    17    18   ar
    22    18    19   ar
    23    19    20   ar
    24    20    21   ar
    25    21    22    1
    26    22    23    1
    27     9     1    1
    28    10    22    1
    29     8     4    1
    30    21    16   ar
    31    13     5    1
@<TRIPOS>MOLECULE
*****
 27 31 0 0 0
SMALL
GASTEIGER

@<TRIPOS>ATOM
      1 C         139.8776  140.5697  168.1601 C.2     1  UNL1        0.1222
      2 C         140.8293  141.7147  168.3423 C.2     1  UNL1        0.0328
      3 C         141.1919  142.5820  167.1734 C.2     1  UNL1        0.0037
      4 C         140.6027  142.3043  165.8222 C.2     1  UNL1        0.0114
      5 C         140.7724  142.9819  164.4948 C.2     1  UNL1       -0.0025
      6 C         139.9255  142.2557  163.4921 C.2     1  UNL1        0.0920
      7 N         139.2324  141.1293  164.1998 N.2     1  UNL1       -0.2505
      8 C         139.6510  141.1594  165.6400 C.2     1  UNL1        0.0660
      9 C         139.2884  140.2921  166.8089 C.3     1  UNL1        0.1095
     10 C         139.8948  142.7139  162.0641 C.3     1  UNL1        0.1939
     11 N         140.7111  143.8984  161.6388 N.am    1  UNL1       -0.2562
     12 C         141.5580  144.6246  162.6415 C.3     1  UNL1        0.1003
     13 C         141.5886  144.1663  164.0696 C.3     1  UNL1        0.0493
     14 C         140.6805  144.3566  160.2109 C.2     1  UNL1        0.2546
     15 O         141.4968  145.5410  159.7857 O.2     1  UNL1       -0.2697
     16 C         139.8336  143.6304  159.2081 C.ar    1  UNL1        0.1008
     17 C         139.8030  144.0887  157.7802 C.ar    1  UNL1        0.1442
     18 C         138.9561  143.3625  156.7775 C.ar    1  UNL1        0.0371
     19 C         138.1399  142.1781  157.2028 C.ar    1  UNL1        0.0044
     20 C         138.1705  141.7198  158.6308 C.ar    1  UNL1        0.0149
     21 C         139.0174  142.4460  159.6335 C.ar    1  UNL1        0.0566
     22 N         139.0480  141.9878  161.0615 N.pl3   1  UNL1       -0.2867
     23 C         138.2317  140.8033  161.4867 C.3     1  UNL1        0.1140
     24 C         140.1053  139.9792  170.6798 C.3     1  UNL1        0.2520
     25 O         139.5150  139.7025  169.3290 O.2     1  UNL1       -0.4753
     26 O         140.6193  145.2731  157.3550 O.3     1  UNL1       -0.4712
     27 C         139.9587  146.4315  156.6681 C.3     1  UNL1        0.2525
@<TRIPOS>BOND
     1    24    25    1
     2    25     1    1
     3     1     2    2
     4     2     3    1
     5     3     4    2
     6     4     5    1
     7     5     6    2
     8     6     7    1
     9     7     8    2
    10     8     9    1
    11     6    10    1
    12    10    11    1
    13    11    12    1
    14    12    13    1
    15    11    14   am
    16    14    15    2
    17    14    16    1
    18    16    17   ar
    19    17    26    1
    20    26    27    1
    21    17    18   ar
    22    18    19   ar
    23    19    20   ar
    24    20    21   ar
    25    21    22    1
    26    22    23    1
    27     9     1    1
    28    10    22    1
    29     8     4    1
    30    21    16   ar
    31    13     5    1
@<TRIPOS>MOLECULE
*****
 27 31 0 0 0
SMALL
GASTEIGER

@<TRIPOS>ATOM
      1 C         141.6176  141.4468  169.3533 C.2     1  UNL1        0.1222
      2 C         142.1733  140.0548  169.2956 C.2     1  UNL1        0.0328
      3 C         142.6418  139.4878  167.9883 C.2     1  UNL1        0.0037
      4 C         142.5546  140.3129  166.7387 C.2     1  UNL1        0.0114
      5 C         142.9357  140.0245  165.3169 C.2     1  UNL1       -0.0025
      6 C         142.6155  141.2383  164.4958 C.2     1  UNL1        0.0920
      7 N         142.0366  142.2769  165.4102 N.2     1  UNL1       -0.2505
      8 C         141.9989  141.7049  166.7964 C.2     1  UNL1        0.0660
      9 C         141.5305  142.2719  168.1037 C.3     1  UNL1        0.1095
     10 C         142.8925  141.2410  163.0216 C.3     1  UNL1        0.1939
     11 N         143.4897  140.0299  162.3685 N.am    1  UNL1       -0.2562
     12 C         143.8099  138.8160  163.1895 C.3     1  UNL1        0.1003
     13 C         143.5329  138.8133  164.6638 C.3     1  UNL1        0.0493
     14 C         143.7667  140.0326  160.8943 C.2     1  UNL1        0.2546
     15 O         144.3639  138.8214  160.2412 O.2     1  UNL1       -0.2697
     16 C         143.4466  141.2464  160.0732 C.ar    1  UNL1        0.1008
     17 C         143.7236  141.2491  158.5990 C.ar    1  UNL1        0.1442
     18 C         143.4034  142.4629  157.7779 C.ar    1  UNL1        0.0371
     19 C         142.8063  143.6740  158.4311 C.ar    1  UNL1        0.0044
     20 C         142.5292  143.6713  159.9054 C.ar    1  UNL1        0.0149
     21 C         142.8494  142.4575  160.7264 C.ar    1  UNL1        0.0566
     22 N         142.5724  142.4548  162.2006 N.pl3   1  UNL1       -0.2867
     23 C         141.9752  143.6659  162.8537 C.3     1  UNL1        0.1140
     24 C         139.8975  142.8386  170.7149 C.3     1  UNL1        0.2520
     25 O         141.1492  142.0138  170.6607 O.2     1  UNL1       -0.4753
     26 O         144.3208  140.0380  157.9459 O.3     1  UNL1       -0.4712
     27 C         143.6263  139.3939  156.7828 C.3     1  UNL1        0.2525
@<TRIPOS>BOND
     1    24    25    1
     2    25     1    1
     3     1     2    2
     4     2     3    1
     5     3     4    2
     6     4     5    1
     7     5     6    2
     8     6     7    1
     9     7     8    2
    10     8     9    1
    11     6    10    1
    12    10    11    1
    13    11    12    1
    14    12    13    1
    15    11    14   am
    16    14    15    2
    17    14    16    1
    18    16    17   ar
    19    17    26    1
    20    26    27    1
    21    17    18   ar
    22    18    19   ar
    23    19    20   ar
    24    20    21   ar
    25    21    22    1
    26    22    23    1
    27     9     1    1
    28    10    22    1
    29     8     4    1
    30    21    16   ar
    31    13     5    1
@<TRIPOS>MOLECULE
*****
 27 31 0 0 0
SMALL
GASTEIGER

@<TRIPOS>ATOM
      1 C         141.6595  135.4259  155.0764 C.2     1  UNL1        0.1222
      2 C         141.3072  136.6517  154.2870 C.2     1  UNL1        0.0328
      3 C         141.5038  138.0123  154.8869 C.2     1  UNL1        0.0037
      4 C         142.0527  138.1472  156.2764 C.2     1  UNL1        0.0114
      5 C         142.3531  139.3471  157.1248 C.2     1  UNL1       -0.0025
      6 C         142.8911  138.8629  158.4386 C.2     1  UNL1        0.0920
      7 N         142.9232  137.3637  158.4022 N.2     1  UNL1       -0.2505
      8 C         142.4049  136.9213  157.0658 C.2     1  UNL1        0.0660
      9 C         142.2083  135.5607  156.4658 C.3     1  UNL1        0.1095
     10 C         143.2824  139.8497  159.4984 C.3     1  UNL1        0.1939
     11 N         143.1356  141.3208  159.2444 N.am    1  UNL1       -0.2562
     12 C         142.5976  141.8050  157.9305 C.3     1  UNL1        0.1003
     13 C         142.2064  140.8181  156.8707 C.3     1  UNL1        0.0493
     14 C         143.5268  142.3076  160.3041 C.2     1  UNL1        0.2546
     15 O         143.3800  143.7786  160.0501 O.2     1  UNL1       -0.2697
     16 C         144.0648  141.8234  161.6180 C.ar    1  UNL1        0.1008
     17 C         144.4560  142.8102  162.6777 C.ar    1  UNL1        0.1442
     18 C         144.9940  142.3260  163.9916 C.ar    1  UNL1        0.0371
     19 C         145.1408  140.8550  164.2456 C.ar    1  UNL1        0.0044
     20 C         144.7495  139.8681  163.1857 C.ar    1  UNL1        0.0149
     21 C         144.2115  140.3523  161.8719 C.ar    1  UNL1        0.0566
     22 N         143.8203  139.3655  160.8121 N.pl3   1  UNL1       -0.2867
     23 C         143.9671  137.8945  161.0662 C.3     1  UNL1        0.1140
     24 C         141.3894  132.8579  155.3635 C.3     1  UNL1        0.2520
     25 O         141.4629  134.0652  154.4764 O.2     1  UNL1       -0.4753
     26 O         144.3092  144.2812  162.4237 O.3     1  UNL1       -0.4712
     27 C         143.6964  145.1653  163.4690 C.3     1  UNL1        0.2525
@<TRIPOS>BOND
     1    24    25    1
     2    25     1    1
     3     1     2    2
     4     2     3    1
     5     3     4    2
     6     4     5    1
     7     5     6    2
     8     6     7    1
     9     7     8    2
    10     8     9    1
    11     6    10    1
    12    10    11    1
    13    11    12    1
    14    12    13    1
    15    11    14   am
    16    14    15    2
    17    14    16    1
    18    16    17   ar
    19    17    26    1
    20    26    27    1
    21    17    18   ar
    22    18    19   ar
    23    19    20   ar
    24    20    21   ar
    25    21    22    1
    26    22    23    1
    27     9     1    1
    28    10    22    1
    29     8     4    1
    30    21    16   ar
    31    13     5    1
@<TRIPOS>MOLECULE
*****
 27 31 0 0 0
SMALL
GASTEIGER

@<TRIPOS>ATOM
      1 C         139.8848  144.6312  157.1538 C.2     1  UNL1        0.1222
      2 C         140.9235  145.5486  157.7277 C.2     1  UNL1        0.0328
      3 C         141.3210  145.4235  159.1687 C.2     1  UNL1        0.0037
      4 C         140.6798  144.3809  160.0357 C.2     1  UNL1        0.0114
      5 C         140.8669  144.0231  161.4803 C.2     1  UNL1       -0.0025
      6 C         139.9438  142.8846  161.7993 C.2     1  UNL1        0.0920
      7 N         139.1862  142.5387  160.5518 N.2     1  UNL1       -0.2505
      8 C         139.6411  143.4635  159.4618 C.2     1  UNL1        0.0660
      9 C         139.2436  143.5887  158.0209 C.3     1  UNL1        0.1095
     10 C         139.9124  142.3100  163.1845 C.3     1  UNL1        0.1939
     11 N         140.8041  142.8738  164.2508 N.am    1  UNL1       -0.2562
     12 C         141.7272  144.0124  163.9319 C.3     1  UNL1        0.1003
     13 C         141.7586  144.5870  162.5466 C.3     1  UNL1        0.0493
     14 C         140.7727  142.2992  165.6360 C.2     1  UNL1        0.2546
     15 O         141.6644  142.8631  166.7023 O.2     1  UNL1       -0.2697
     16 C         139.8496  141.1607  165.9550 C.ar    1  UNL1        0.1008
     17 C         139.8183  140.5860  167.3402 C.ar    1  UNL1        0.1442
     18 C         138.8952  139.4475  167.6591 C.ar    1  UNL1        0.0371
     19 C         138.0035  138.8837  166.5928 C.ar    1  UNL1        0.0044
     20 C         138.0349  139.4583  165.2075 C.ar    1  UNL1        0.0149
     21 C         138.9580  140.5969  164.8886 C.ar    1  UNL1        0.0566
     22 N         138.9894  141.1715  163.5034 N.pl3   1  UNL1       -0.2867
     23 C         138.0977  140.6076  162.4372 C.3     1  UNL1        0.1140
     24 C         138.4491  145.7596  155.3057 C.3     1  UNL1        0.2520
     25 O         139.4873  144.7564  155.7129 O.2     1  UNL1       -0.4753
     26 O         140.7100  141.1499  168.4064 O.3     1  UNL1       -0.4712
     27 C         140.1116  141.8262  169.6042 C.3     1  UNL1        0.2525
@<TRIPOS>BOND
     1    24    25    1
     2    25     1    1
     3     1     2    2
     4     2     3    1
     5     3     4    2
     6     4     5    1
     7     5     6    2
     8     6     7    1
     9     7     8    2
    10     8     9    1
    11     6    10    1
    12    10    11    1
    13    11    12    1
    14    12    13    1
    15    11    14   am
    16    14    15    2
    17    14    16    1
    18    16    17   ar
    19    17    26    1
    20    26    27    1
    21    17    18   ar
    22    18    19   ar
    23    19    20   ar
    24    20    21   ar
    25    21    22    1
    26    22    23    1
    27     9     1    1
    28    10    22    1
    29     8     4    1
    30    21    16   ar
    31    13     5    1
