@<TRIPOS>MOLECULE
*****
 26 28 0 0 0
SMALL
GASTEIGER

@<TRIPOS>ATOM
      1 C         138.1129  140.5201  161.7041 C.3     1  UNL1        0.0964
      2 C         138.1535  140.1014  160.2643 C.3     1  UNL1        0.0901
      3 N         139.2389  139.0775  160.1097 N.3     1  UNL1       -0.2700
      4 C         139.6260  138.3887  158.8347 C.3     1  UNL1        0.0897
      5 C         139.8690  138.8635  161.4540 C.3     1  UNL1        0.0780
      6 C         139.1731  139.7551  162.4393 C.3     1  UNL1        0.0557
      7 C         139.4831  139.8627  163.9031 C.ar    1  UNL1       -0.0197
      8 C         138.6302  139.1428  164.9052 C.ar    1  UNL1       -0.0042
      9 C         138.9402  139.2504  166.3688 C.ar    1  UNL1       -0.0003
     10 C         140.1031  140.0779  166.8303 C.ar    1  UNL1        0.0015
     11 C         140.9560  140.7977  165.8282 C.ar    1  UNL1       -0.0003
     12 C         140.6460  140.6901  164.3646 C.ar    1  UNL1       -0.0042
     13 C         140.4131  140.1855  168.2941 C.ar    1  UNL1        0.0192
     14 C         141.8342  140.1071  168.7675 C.ar    1  UNL1        0.0031
     15 C         142.1442  140.2147  170.2312 C.ar    1  UNL1        0.0207
     16 C         141.0330  140.4006  171.2214 C.ar    1  UNL1        0.0989
     17 N         139.6117  140.4790  170.7480 N.ar    1  UNL1       -0.2423
     18 C         139.3018  140.3714  169.2843 C.ar    1  UNL1        0.0988
     19 N         137.1765  141.5271  162.3033 N.3     1  UNL1       -0.1830
     20 H         136.5112  141.7815  161.5732 H       1  UNL1        0.1484
     21 S         137.7139  142.8097  162.8654 S.O2    1  UNL1        0.0390
     22 O         138.0314  143.2845  161.4784 O.2     1  UNL1       -0.1576
     23 O         137.3965  142.3350  164.2524 O.2     1  UNL1       -0.1576
     24 C         138.1273  144.3786  164.8946 C.3     1  UNL1        0.0270
     25 C         138.2514  144.0923  163.4274 C.3     1  UNL1        0.1457
     26 C         138.9130  145.0888  162.5223 C.3     1  UNL1        0.0270
@<TRIPOS>BOND
     1    24    25    1
     2    25    26    1
     3    25    21    1
     4    21    22    2
     5    21    23    2
     6    21    19    1
     7     1    19    1
     8     1     2    1
     9     2     3    1
    10     3     4    1
    11     3     5    1
    12     5     6    1
    13     6     7    1
    14     7     8   ar
    15     8     9   ar
    16     9    10   ar
    17    10    13    1
    18    13    14   ar
    19    14    15   ar
    20    15    16   ar
    21    16    17   ar
    22    17    18   ar
    23    10    11   ar
    24    11    12   ar
    25     6     1    1
    26    12     7   ar
    27    18    13   ar
    28    19    20    1
@<TRIPOS>MOLECULE
*****
 26 28 0 0 0
SMALL
GASTEIGER

@<TRIPOS>ATOM
      1 C         141.8148  144.4051  161.2925 C.3     1  UNL1        0.0964
      2 C         141.5358  144.6034  159.8321 C.3     1  UNL1        0.0901
      3 N         140.2749  143.8633  159.4964 N.3     1  UNL1       -0.2700
      4 C         139.6279  143.7916  158.1450 C.3     1  UNL1        0.0897
      5 C         139.7748  143.2076  160.7493 C.3     1  UNL1        0.0780
      6 C         140.7265  143.5425  161.8594 C.3     1  UNL1        0.0557
      7 C         140.6102  143.0934  163.2859 C.ar    1  UNL1       -0.0197
      8 C         140.0335  144.0164  164.3181 C.ar    1  UNL1       -0.0042
      9 C         139.9173  143.5674  165.7445 C.ar    1  UNL1       -0.0003
     10 C         140.3777  142.1953  166.1388 C.ar    1  UNL1        0.0015
     11 C         140.9544  141.2723  165.1066 C.ar    1  UNL1       -0.0003
     12 C         141.0706  141.7214  163.6802 C.ar    1  UNL1       -0.0042
     13 C         140.2614  141.7463  167.5653 C.ar    1  UNL1        0.0192
     14 C         140.4629  142.7296  168.6799 C.ar    1  UNL1        0.0031
     15 C         140.3467  142.2806  170.1065 C.ar    1  UNL1        0.0207
     16 C         140.0288  140.8482  170.4183 C.ar    1  UNL1        0.0989
     17 N         139.8273  139.8649  169.3036 N.ar    1  UNL1       -0.2423
     18 C         139.9436  140.3139  167.8772 C.ar    1  UNL1        0.0988
     19 N         142.9780  144.9702  162.0525 N.3     1  UNL1       -0.1830
     20 H         143.6388  145.3228  161.3601 H       1  UNL1        0.1484
     21 S         143.7577  144.0961  162.9894 S.O2    1  UNL1        0.0390
     22 O         143.3842  144.9902  164.1345 O.2     1  UNL1       -0.1576
     23 O         144.1313  143.2021  161.8445 O.2     1  UNL1       -0.1576
     24 C         144.4414  143.4373  165.4078 C.3     1  UNL1        0.0270
     25 C         144.5375  143.2221  163.9264 C.3     1  UNL1        0.1457
     26 C         145.4134  142.1329  163.3821 C.3     1  UNL1        0.0270
@<TRIPOS>BOND
     1    24    25    1
     2    25    26    1
     3    25    21    1
     4    21    22    2
     5    21    23    2
     6    21    19    1
     7     1    19    1
     8     1     2    1
     9     2     3    1
    10     3     4    1
    11     3     5    1
    12     5     6    1
    13     6     7    1
    14     7     8   ar
    15     8     9   ar
    16     9    10   ar
    17    10    13    1
    18    13    14   ar
    19    14    15   ar
    20    15    16   ar
    21    16    17   ar
    22    17    18   ar
    23    10    11   ar
    24    11    12   ar
    25     6     1    1
    26    12     7   ar
    27    18    13   ar
    28    19    20    1
@<TRIPOS>MOLECULE
*****
 26 28 0 0 0
SMALL
GASTEIGER

@<TRIPOS>ATOM
      1 C         141.6753  144.6573  161.3476 C.3     1  UNL1        0.0964
      2 C         141.8492  144.8046  159.8651 C.3     1  UNL1        0.0901
      3 N         142.7351  143.6915  159.3894 N.3     1  UNL1       -0.2700
      4 C         143.1709  143.4551  157.9737 C.3     1  UNL1        0.0897
      5 C         143.1087  142.8563  160.5781 C.3     1  UNL1        0.0780
      6 C         142.4537  143.4532  161.7883 C.3     1  UNL1        0.0557
      7 C         142.5587  142.9367  163.1927 C.ar    1  UNL1       -0.0197
      8 C         141.6006  141.8910  163.6808 C.ar    1  UNL1       -0.0042
      9 C         141.7056  141.3745  165.0852 C.ar    1  UNL1       -0.0003
     10 C         142.7689  141.9037  166.0014 C.ar    1  UNL1        0.0015
     11 C         143.7270  142.9495  165.5132 C.ar    1  UNL1       -0.0003
     12 C         143.6220  143.4659  164.1089 C.ar    1  UNL1       -0.0042
     13 C         142.8739  141.3872  167.4057 C.ar    1  UNL1        0.0192
     14 C         143.2438  142.3186  168.5217 C.ar    1  UNL1        0.0031
     15 C         143.3488  141.8021  169.9261 C.ar    1  UNL1        0.0207
     16 C         143.0839  140.3541  170.2144 C.ar    1  UNL1        0.0989
     17 N         142.7140  139.4226  169.0983 N.ar    1  UNL1       -0.2423
     18 C         142.6090  139.9392  167.6940 C.ar    1  UNL1        0.0988
     19 N         140.8651  145.5563  162.2339 N.3     1  UNL1       -0.1830
     20 H         141.5156  145.9839  162.8930 H       1  UNL1        0.1484
     21 S         139.7362  144.9917  163.0442 S.O2    1  UNL1        0.0390
     22 O         140.5500  145.1576  164.2934 O.2     1  UNL1       -0.1576
     23 O         138.9225  144.8257  161.7952 O.2     1  UNL1       -0.1576
     24 C         138.4477  144.8193  165.2937 C.3     1  UNL1        0.0270
     25 C         138.6074  144.4270  163.8547 C.3     1  UNL1        0.1457
     26 C         137.6382  143.4701  163.2263 C.3     1  UNL1        0.0270
@<TRIPOS>BOND
     1    24    25    1
     2    25    26    1
     3    25    21    1
     4    21    22    2
     5    21    23    2
     6    21    19    1
     7     1    19    1
     8     1     2    1
     9     2     3    1
    10     3     4    1
    11     3     5    1
    12     5     6    1
    13     6     7    1
    14     7     8   ar
    15     8     9   ar
    16     9    10   ar
    17    10    13    1
    18    13    14   ar
    19    14    15   ar
    20    15    16   ar
    21    16    17   ar
    22    17    18   ar
    23    10    11   ar
    24    11    12   ar
    25     6     1    1
    26    12     7   ar
    27    18    13   ar
    28    19    20    1
@<TRIPOS>MOLECULE
*****
 26 28 0 0 0
SMALL
GASTEIGER

@<TRIPOS>ATOM
      1 C         144.1591  139.7864  161.8076 C.3     1  UNL1        0.0964
      2 C         144.1537  139.2822  160.3949 C.3     1  UNL1        0.0901
      3 N         142.9771  138.3657  160.2342 N.3     1  UNL1       -0.2700
      4 C         142.5902  137.6391  158.9803 C.3     1  UNL1        0.0897
      5 C         142.2554  138.3035  161.5477 C.3     1  UNL1        0.0780
      6 C         142.9858  139.1816  162.5201 C.3     1  UNL1        0.0557
      7 C         142.6092  139.4139  163.9534 C.ar    1  UNL1       -0.0197
      8 C         141.4513  140.3063  164.2893 C.ar    1  UNL1       -0.0042
      9 C         141.0747  140.5386  165.7226 C.ar    1  UNL1       -0.0003
     10 C         141.8560  139.8785  166.8198 C.ar    1  UNL1        0.0015
     11 C         143.0138  138.9861  166.4838 C.ar    1  UNL1       -0.0003
     12 C         143.3904  138.7538  165.0506 C.ar    1  UNL1       -0.0042
     13 C         141.4793  140.1108  168.2531 C.ar    1  UNL1        0.0192
     14 C         140.0345  140.2246  168.6399 C.ar    1  UNL1        0.0031
     15 C         139.6579  140.4570  170.0732 C.ar    1  UNL1        0.0207
     16 C         140.7260  140.5755  171.1196 C.ar    1  UNL1        0.0989
     17 N         142.1708  140.4617  170.7327 N.ar    1  UNL1       -0.2423
     18 C         142.5474  140.2293  169.2995 C.ar    1  UNL1        0.0988
     19 N         145.1617  140.7298  162.4032 N.3     1  UNL1       -0.1830
     20 H         145.6997  140.1955  163.0853 H       1  UNL1        0.1484
     21 S         144.6986  141.9762  163.0974 S.O2    1  UNL1        0.0390
     22 O         145.4102  141.5453  164.3456 O.2     1  UNL1       -0.1576
     23 O         143.9871  142.4072  161.8493 O.2     1  UNL1       -0.1576
     24 C         144.0028  144.4777  163.0038 C.3     1  UNL1        0.0270
     25 C         144.2357  143.2227  163.7917 C.3     1  UNL1        0.1457
     26 C         144.0055  143.2141  165.2739 C.3     1  UNL1        0.0270
@<TRIPOS>BOND
     1    24    25    1
     2    25    26    1
     3    25    21    1
     4    21    22    2
     5    21    23    2
     6    21    19    1
     7     1    19    1
     8     1     2    1
     9     2     3    1
    10     3     4    1
    11     3     5    1
    12     5     6    1
    13     6     7    1
    14     7     8   ar
    15     8     9   ar
    16     9    10   ar
    17    10    13    1
    18    13    14   ar
    19    14    15   ar
    20    15    16   ar
    21    16    17   ar
    22    17    18   ar
    23    10    11   ar
    24    11    12   ar
    25     6     1    1
    26    12     7   ar
    27    18    13   ar
    28    19    20    1
@<TRIPOS>MOLECULE
*****
 26 28 0 0 0
SMALL
GASTEIGER

@<TRIPOS>ATOM
      1 C         138.5804  141.4780  161.1918 C.3     1  UNL1        0.0964
      2 C         138.4306  140.7306  159.8999 C.3     1  UNL1        0.0901
      3 N         139.3617  139.5550  159.9338 N.3     1  UNL1       -0.2700
      4 C         139.5368  138.5373  158.8459 C.3     1  UNL1        0.0897
      5 C         140.0868  139.5758  161.2467 C.3     1  UNL1        0.0780
      6 C         139.6040  140.7643  162.0242 C.3     1  UNL1        0.0557
      7 C         140.0640  141.1681  163.3937 C.ar    1  UNL1       -0.0197
      8 C         139.1540  140.9917  164.5729 C.ar    1  UNL1       -0.0042
      9 C         139.6140  141.3955  165.9423 C.ar    1  UNL1       -0.0003
     10 C         140.9841  141.9758  166.1324 C.ar    1  UNL1        0.0015
     11 C         141.8942  142.1522  164.9532 C.ar    1  UNL1       -0.0003
     12 C         141.4341  141.7484  163.5838 C.ar    1  UNL1       -0.0042
     13 C         141.4442  142.3796  167.5019 C.ar    1  UNL1        0.0192
     14 C         140.4671  142.9613  168.4801 C.ar    1  UNL1        0.0031
     15 C         140.9271  143.3651  169.8496 C.ar    1  UNL1        0.0207
     16 C         142.3643  143.1872  170.2407 C.ar    1  UNL1        0.0989
     17 N         143.3413  142.6055  169.2625 N.ar    1  UNL1       -0.2423
     18 C         142.8813  142.2017  167.8931 C.ar    1  UNL1        0.0988
     19 N         137.8371  142.7208  161.5827 N.3     1  UNL1       -0.1830
     20 H         137.3987  143.0806  160.7349 H       1  UNL1        0.1484
     21 S         138.5716  143.8680  162.2106 S.O2    1  UNL1        0.0390
     22 O         137.5779  143.8893  163.3341 O.2     1  UNL1       -0.1576
     23 O         139.5653  143.8467  161.0873 O.2     1  UNL1       -0.1576
     24 C         139.7350  146.1813  161.9983 C.3     1  UNL1        0.0270
     25 C         139.3061  145.0152  162.8386 C.3     1  UNL1        0.1457
     26 C         139.6118  144.9963  164.3070 C.3     1  UNL1        0.0270
@<TRIPOS>BOND
     1    24    25    1
     2    25    26    1
     3    25    21    1
     4    21    22    2
     5    21    23    2
     6    21    19    1
     7     1    19    1
     8     1     2    1
     9     2     3    1
    10     3     4    1
    11     3     5    1
    12     5     6    1
    13     6     7    1
    14     7     8   ar
    15     8     9   ar
    16     9    10   ar
    17    10    13    1
    18    13    14   ar
    19    14    15   ar
    20    15    16   ar
    21    16    17   ar
    22    17    18   ar
    23    10    11   ar
    24    11    12   ar
    25     6     1    1
    26    12     7   ar
    27    18    13   ar
    28    19    20    1
@<TRIPOS>MOLECULE
*****
 26 28 0 0 0
SMALL
GASTEIGER

@<TRIPOS>ATOM
      1 C         142.7162  138.6214  161.2089 C.3     1  UNL1        0.0964
      2 C         143.0753  138.5317  159.7553 C.3     1  UNL1        0.0901
      3 N         143.5379  139.8866  159.3075 N.3     1  UNL1       -0.2700
      4 C         143.9936  140.2504  157.9256 C.3     1  UNL1        0.0897
      5 C         143.4647  140.8136  160.4845 C.3     1  UNL1        0.0780
      6 C         142.9569  140.0317  161.6596 C.3     1  UNL1        0.0557
      7 C         142.7296  140.5663  163.0426 C.ar    1  UNL1       -0.0197
      8 C         143.7017  140.2467  164.1393 C.ar    1  UNL1       -0.0042
      9 C         143.4744  140.7813  165.5222 C.ar    1  UNL1       -0.0003
     10 C         142.2750  141.6355  165.8084 C.ar    1  UNL1        0.0015
     11 C         141.3030  141.9551  164.7117 C.ar    1  UNL1       -0.0003
     12 C         141.5302  141.4205  163.3288 C.ar    1  UNL1       -0.0042
     13 C         142.0478  142.1701  167.1914 C.ar    1  UNL1        0.0192
     14 C         140.6763  142.6110  167.6091 C.ar    1  UNL1        0.0031
     15 C         140.4490  143.1456  168.9921 C.ar    1  UNL1        0.0207
     16 C         141.5933  143.2393  169.9574 C.ar    1  UNL1        0.0989
     17 N         142.9649  142.7984  169.5396 N.ar    1  UNL1       -0.2423
     18 C         143.1921  142.2638  168.1567 C.ar    1  UNL1        0.0988
     19 N         142.2061  137.4980  162.0620 N.3     1  UNL1       -0.1830
     20 H         142.1736  136.6690  161.4686 H       1  UNL1        0.1484
     21 S         140.8652  137.6088  162.7249 S.O2    1  UNL1        0.0390
     22 O         140.2132  137.7543  161.3818 O.2     1  UNL1       -0.1576
     23 O         141.5170  137.4634  164.0679 O.2     1  UNL1       -0.1576
     24 C         139.4135  137.6099  164.8796 C.3     1  UNL1        0.0270
     25 C         139.5241  137.7196  163.3877 C.3     1  UNL1        0.1457
     26 C         138.2937  137.9402  162.5586 C.3     1  UNL1        0.0270
@<TRIPOS>BOND
     1    24    25    1
     2    25    26    1
     3    25    21    1
     4    21    22    2
     5    21    23    2
     6    21    19    1
     7     1    19    1
     8     1     2    1
     9     2     3    1
    10     3     4    1
    11     3     5    1
    12     5     6    1
    13     6     7    1
    14     7     8   ar
    15     8     9   ar
    16     9    10   ar
    17    10    13    1
    18    13    14   ar
    19    14    15   ar
    20    15    16   ar
    21    16    17   ar
    22    17    18   ar
    23    10    11   ar
    24    11    12   ar
    25     6     1    1
    26    12     7   ar
    27    18    13   ar
    28    19    20    1
@<TRIPOS>MOLECULE
*****
 26 28 0 0 0
SMALL
GASTEIGER

@<TRIPOS>ATOM
      1 C         139.2278  143.4345  160.9370 C.3     1  UNL1        0.0964
      2 C         139.6276  143.9658  159.5924 C.3     1  UNL1        0.0901
      3 N         140.9930  144.5733  159.7213 N.3     1  UNL1       -0.2700
      4 C         141.7767  145.2226  158.6194 C.3     1  UNL1        0.0897
      5 C         141.4371  144.4174  161.1455 C.3     1  UNL1        0.0780
      6 C         140.3462  143.7136  161.8969 C.3     1  UNL1        0.0557
      7 C         140.3696  143.3523  163.3526 C.ar    1  UNL1       -0.0197
      8 C         139.5639  144.1484  164.3359 C.ar    1  UNL1       -0.0042
      9 C         139.5873  143.7871  165.7915 C.ar    1  UNL1       -0.0003
     10 C         140.4163  142.6297  166.2638 C.ar    1  UNL1        0.0015
     11 C         141.2220  141.8336  165.2804 C.ar    1  UNL1       -0.0003
     12 C         141.1986  142.1949  163.8248 C.ar    1  UNL1       -0.0042
     13 C         140.4397  142.2684  167.7195 C.ar    1  UNL1        0.0192
     14 C         140.3384  143.3433  168.7608 C.ar    1  UNL1        0.0031
     15 C         140.3618  142.9820  170.2165 C.ar    1  UNL1        0.0207
     16 C         140.4865  141.5458  170.6308 C.ar    1  UNL1        0.0989
     17 N         140.5878  140.4709  169.5895 N.ar    1  UNL1       -0.2423
     18 C         140.5644  140.8322  168.1339 C.ar    1  UNL1        0.0988
     19 N         137.9364  142.7451  161.2642 N.3     1  UNL1       -0.1830
     20 H         137.4053  143.3816  161.8585 H       1  UNL1        0.1484
     21 S         137.9508  141.4154  161.9581 S.O2    1  UNL1        0.0390
     22 O         137.0772  141.9721  163.0430 O.2     1  UNL1       -0.1576
     23 O         138.8244  140.8587  160.8734 O.2     1  UNL1       -0.1576
     24 C         138.1400  140.0183  164.1404 C.3     1  UNL1        0.0270
     25 C         137.9651  140.0857  162.6522 C.3     1  UNL1        0.1457
     26 C         137.8046  138.8234  161.8579 C.3     1  UNL1        0.0270
@<TRIPOS>BOND
     1    24    25    1
     2    25    26    1
     3    25    21    1
     4    21    22    2
     5    21    23    2
     6    21    19    1
     7     1    19    1
     8     1     2    1
     9     2     3    1
    10     3     4    1
    11     3     5    1
    12     5     6    1
    13     6     7    1
    14     7     8   ar
    15     8     9   ar
    16     9    10   ar
    17    10    13    1
    18    13    14   ar
    19    14    15   ar
    20    15    16   ar
    21    16    17   ar
    22    17    18   ar
    23    10    11   ar
    24    11    12   ar
    25     6     1    1
    26    12     7   ar
    27    18    13   ar
    28    19    20    1
@<TRIPOS>MOLECULE
*****
 26 28 0 0 0
SMALL
GASTEIGER

@<TRIPOS>ATOM
      1 C         143.3283  142.8569  160.7130 C.3     1  UNL1        0.0964
      2 C         142.8977  143.6035  159.4853 C.3     1  UNL1        0.0901
      3 N         141.7792  144.5254  159.8718 N.3     1  UNL1       -0.2700
      4 C         141.0496  145.4599  158.9530 C.3     1  UNL1        0.0897
      5 C         141.5187  144.3485  161.3384 C.3     1  UNL1        0.0780
      6 C         142.4760  143.3174  161.8583 C.3     1  UNL1        0.0557
      7 C         142.5654  142.8320  163.2748 C.ar    1  UNL1       -0.0197
      8 C         143.6699  143.3178  164.1658 C.ar    1  UNL1       -0.0042
      9 C         143.7592  142.8323  165.5822 C.ar    1  UNL1       -0.0003
     10 C         142.7440  141.8611  166.1077 C.ar    1  UNL1        0.0015
     11 C         141.6395  141.3753  165.2166 C.ar    1  UNL1       -0.0003
     12 C         141.5502  141.8608  163.8002 C.ar    1  UNL1       -0.0042
     13 C         142.8334  141.3757  167.5242 C.ar    1  UNL1        0.0192
     14 C         143.1426  142.3411  168.6297 C.ar    1  UNL1        0.0031
     15 C         143.2319  141.8557  170.0463 C.ar    1  UNL1        0.0207
     16 C         143.0121  140.4048  170.3571 C.ar    1  UNL1        0.0989
     17 N         142.7029  139.4394  169.2515 N.ar    1  UNL1       -0.2423
     18 C         142.6135  139.9248  167.8350 C.ar    1  UNL1        0.0988
     19 N         144.4196  141.8302  160.7831 N.3     1  UNL1       -0.1830
     20 H         144.5915  141.5176  159.8276 H       1  UNL1        0.1484
     21 S         144.2361  140.5963  161.6160 S.O2    1  UNL1        0.0390
     22 O         143.0801  140.1856  160.7528 O.2     1  UNL1       -0.1576
     23 O         145.3921  141.0069  162.4791 O.2     1  UNL1       -0.1576
     24 C         143.4747  138.1219  161.8344 C.3     1  UNL1        0.0270
     25 C         144.0526  139.3623  162.4488 C.3     1  UNL1        0.1457
     26 C         144.4471  139.3687  163.8960 C.3     1  UNL1        0.0270
@<TRIPOS>BOND
     1    24    25    1
     2    25    26    1
     3    25    21    1
     4    21    22    2
     5    21    23    2
     6    21    19    1
     7     1    19    1
     8     1     2    1
     9     2     3    1
    10     3     4    1
    11     3     5    1
    12     5     6    1
    13     6     7    1
    14     7     8   ar
    15     8     9   ar
    16     9    10   ar
    17    10    13    1
    18    13    14   ar
    19    14    15   ar
    20    15    16   ar
    21    16    17   ar
    22    17    18   ar
    23    10    11   ar
    24    11    12   ar
    25     6     1    1
    26    12     7   ar
    27    18    13   ar
    28    19    20    1
@<TRIPOS>MOLECULE
*****
 26 28 0 0 0
SMALL
GASTEIGER

@<TRIPOS>ATOM
      1 C         139.8655  143.0108  161.1590 C.3     1  UNL1        0.0964
      2 C         139.1918  142.4811  159.9280 C.3     1  UNL1        0.0901
      3 N         138.5476  141.1726  160.2787 N.3     1  UNL1       -0.2700
      4 C         137.7651  140.2969  159.3455 C.3     1  UNL1        0.0897
      5 C         138.8232  140.8937  161.7265 C.3     1  UNL1        0.0780
      6 C         139.6377  142.0297  162.2706 C.3     1  UNL1        0.0557
      7 C         140.1369  142.1615  163.6790 C.ar    1  UNL1       -0.0197
      8 C         139.4224  143.0571  164.6472 C.ar    1  UNL1       -0.0042
      9 C         139.9215  143.1889  166.0555 C.ar    1  UNL1       -0.0003
     10 C         141.1351  142.4251  166.4957 C.ar    1  UNL1        0.0015
     11 C         141.8496  141.5295  165.5275 C.ar    1  UNL1       -0.0003
     12 C         141.3505  141.3977  164.1192 C.ar    1  UNL1       -0.0042
     13 C         141.6342  142.5569  167.9041 C.ar    1  UNL1        0.0192
     14 C         143.0564  142.2100  168.2314 C.ar    1  UNL1        0.0031
     15 C         143.5555  142.3418  169.6398 C.ar    1  UNL1        0.0207
     16 C         142.6324  142.8205  170.7209 C.ar    1  UNL1        0.0989
     17 N         141.2102  143.1674  170.3936 N.ar    1  UNL1       -0.2423
     18 C         140.7111  143.0356  168.9852 C.ar    1  UNL1        0.0988
     19 N         140.6324  144.2959  161.2606 N.3     1  UNL1       -0.1830
     20 H         140.8082  144.6101  160.3062 H       1  UNL1        0.1484
     21 S         141.9498  144.3286  161.9768 S.O2    1  UNL1        0.0390
     22 O         142.4936  143.3064  161.0232 O.2     1  UNL1       -0.1576
     23 O         141.4062  145.3508  162.9304 O.2     1  UNL1       -0.1576
     24 C         144.4368  143.5966  162.1473 C.3     1  UNL1        0.0270
     25 C         143.2674  144.3612  162.6930 C.3     1  UNL1        0.1457
     26 C         143.4156  145.1585  163.9549 C.3     1  UNL1        0.0270
@<TRIPOS>BOND
     1    24    25    1
     2    25    26    1
     3    25    21    1
     4    21    22    2
     5    21    23    2
     6    21    19    1
     7     1    19    1
     8     1     2    1
     9     2     3    1
    10     3     4    1
    11     3     5    1
    12     5     6    1
    13     6     7    1
    14     7     8   ar
    15     8     9   ar
    16     9    10   ar
    17    10    13    1
    18    13    14   ar
    19    14    15   ar
    20    15    16   ar
    21    16    17   ar
    22    17    18   ar
    23    10    11   ar
    24    11    12   ar
    25     6     1    1
    26    12     7   ar
    27    18    13   ar
    28    19    20    1
