@<TRIPOS>MOLECULE
*****
 27 29 0 0 0
SMALL
GASTEIGER

@<TRIPOS>ATOM
      1 C         139.8382  141.2572  166.0081 C.ar    1  UNL1        0.1409
      2 N         140.1546  141.0767  167.4632 N.ar    1  UNL1       -0.1986
      3 C         139.4670  140.0024  168.2526 C.ar    1  UNL1        0.2181
      4 N         138.4630  139.1087  167.5869 N.ar    1  UNL1       -0.2120
      5 C         138.1465  139.2892  166.1318 C.ar    1  UNL1        0.1091
      6 C         138.8341  140.3634  165.3424 C.ar    1  UNL1        0.1040
      7 C         138.5177  140.5439  163.8873 C.2     1  UNL1        0.2470
      8 N         137.1327  140.9340  163.4638 N.am    1  UNL1       -0.3252
      9 O         139.5864  140.3344  162.8558 O.2     1  UNL1       -0.2702
     10 H         136.4313  141.0715  164.1408 H       1  UNL1        0.1453
     11 H         136.9250  141.0525  162.5087 H       1  UNL1        0.1453
     12 N         140.5258  142.3315  165.2187 N.pl3   1  UNL1       -0.2977
     13 H         140.0137  143.1060  164.8913 H       1  UNL1        0.1536
     14 C         144.7583  139.4227  164.4281 C.3     1  UNL1        0.0311
     15 C         144.1098  140.7713  164.5327 C.ar    1  UNL1       -0.0206
     16 C         144.9290  142.0139  164.3467 C.ar    1  UNL1       -0.0042
     17 C         144.2805  143.3624  164.4513 C.ar    1  UNL1        0.0009
     18 C         142.8128  143.4683  164.7419 C.ar    1  UNL1        0.0146
     19 C         141.9936  142.2256  164.9280 C.ar    1  UNL1        0.0491
     20 C         142.6421  140.8771  164.8234 C.ar    1  UNL1        0.0104
     21 N         139.7834  139.8219  169.7077 N.pl3   1  UNL1       -0.3018
     22 H         139.0556  139.6857  170.3565 H       1  UNL1        0.1497
     23 C         141.2088  139.8490  170.1742 C.3     1  UNL1        0.1031
     24 C         142.4099  138.9750  169.9658 C.3     1  UNL1        0.0898
     25 N         143.2246  139.8874  170.8340 N.3     1  UNL1       -0.2946
     26 C         142.0235  140.7615  171.0424 C.3     1  UNL1        0.0898
     27 H         143.9946  140.3469  170.3480 H       1  UNL1        0.1233
@<TRIPOS>BOND
     1    14    15    1
     2    15    16   ar
     3    16    17   ar
     4    17    18   ar
     5    18    19   ar
     6    19    12    1
     7    12     1    1
     8     1     2   ar
     9     2     3   ar
    10     3    21    1
    11    21    23    1
    12    23    24    1
    13    24    25    1
    14    25    26    1
    15     3     4   ar
    16     4     5   ar
    17     5     6   ar
    18     6     7    1
    19     7     8   am
    20     7     9    2
    21    19    20   ar
    22    20    15   ar
    23     6     1   ar
    24    26    23    1
    25    12    13    1
    26    21    22    1
    27    25    27    1
    28     8    10    1
    29     8    11    1
@<TRIPOS>MOLECULE
*****
 27 29 0 0 0
SMALL
GASTEIGER

@<TRIPOS>ATOM
      1 C         139.2952  140.8185  164.6450 C.ar    1  UNL1        0.1409
      2 N         139.1042  142.2903  164.4271 N.ar    1  UNL1       -0.1986
      3 C         138.1716  142.7753  163.3570 C.ar    1  UNL1        0.2181
      4 N         137.4300  141.7885  162.5049 N.ar    1  UNL1       -0.2120
      5 C         137.6209  140.3167  162.7227 C.ar    1  UNL1        0.1091
      6 C         138.5535  139.8317  163.7928 C.ar    1  UNL1        0.1040
      7 C         138.7444  138.3600  164.0107 C.2     1  UNL1        0.2470
      8 N         139.1203  137.4740  162.8602 N.am    1  UNL1       -0.3252
      9 O         138.5594  137.7742  165.3792 O.2     1  UNL1       -0.2702
     10 H         139.2417  137.8585  161.9620 H       1  UNL1        0.1453
     11 H         139.2456  136.5081  163.0032 H       1  UNL1        0.1453
     12 N         140.2277  140.3335  165.7151 N.pl3   1  UNL1       -0.2977
     13 H         140.9971  139.7669  165.4778 H       1  UNL1        0.1536
     14 C         140.8289  143.6767  169.6472 C.3     1  UNL1        0.0311
     15 C         140.2888  142.3834  169.1128 C.ar    1  UNL1       -0.0206
     16 C         139.5090  141.4685  170.0099 C.ar    1  UNL1       -0.0042
     17 C         138.9688  140.1752  169.4754 C.ar    1  UNL1        0.0009
     18 C         139.2084  139.7969  168.0438 C.ar    1  UNL1        0.0146
     19 C         139.9881  140.7118  167.1467 C.ar    1  UNL1        0.0491
     20 C         140.5283  142.0051  167.6812 C.ar    1  UNL1        0.0104
     21 N         137.9807  144.2470  163.1391 N.pl3   1  UNL1       -0.3018
     22 H         137.0817  144.6423  163.2082 H       1  UNL1        0.1497
     23 C         139.1596  145.1165  162.8161 C.3     1  UNL1        0.1031
     24 C         140.5461  145.2713  163.3670 C.3     1  UNL1        0.0898
     25 N         140.8266  146.3462  162.3591 N.3     1  UNL1       -0.2946
     26 C         139.4401  146.1914  161.8081 C.3     1  UNL1        0.0898
     27 H         141.5664  146.1130  161.6967 H       1  UNL1        0.1233
@<TRIPOS>BOND
     1    14    15    1
     2    15    16   ar
     3    16    17   ar
     4    17    18   ar
     5    18    19   ar
     6    19    12    1
     7    12     1    1
     8     1     2   ar
     9     2     3   ar
    10     3    21    1
    11    21    23    1
    12    23    24    1
    13    24    25    1
    14    25    26    1
    15     3     4   ar
    16     4     5   ar
    17     5     6   ar
    18     6     7    1
    19     7     8   am
    20     7     9    2
    21    19    20   ar
    22    20    15   ar
    23     6     1   ar
    24    26    23    1
    25    12    13    1
    26    21    22    1
    27    25    27    1
    28     8    10    1
    29     8    11    1
@<TRIPOS>MOLECULE
*****
 27 29 0 0 0
SMALL
GASTEIGER

@<TRIPOS>ATOM
      1 C         139.9492  140.4470  166.3468 C.ar    1  UNL1        0.1409
      2 N         140.0806  140.6478  167.8275 N.ar    1  UNL1       -0.1986
      3 C         139.1486  139.9403  168.7660 C.ar    1  UNL1        0.2181
      4 N         138.0852  139.0319  168.2238 N.ar    1  UNL1       -0.2120
      5 C         137.9538  138.8311  166.7431 C.ar    1  UNL1        0.1091
      6 C         138.8858  139.5386  165.8046 C.ar    1  UNL1        0.1040
      7 C         138.7544  139.3377  164.3240 C.2     1  UNL1        0.2470
      8 N         138.8108  137.9544  163.7468 N.am    1  UNL1       -0.3252
      9 O         138.5665  140.5203  163.4204 O.2     1  UNL1       -0.2702
     10 H         138.9341  137.1782  164.3398 H       1  UNL1        0.1453
     11 H         138.7246  137.8225  162.7750 H       1  UNL1        0.1453
     12 N         140.8812  141.1545  165.4083 N.pl3   1  UNL1       -0.2977
     13 H         140.5959  141.9859  164.9650 H       1  UNL1        0.1536
     14 C         145.6622  141.6922  163.4452 C.3     1  UNL1        0.0311
     15 C         144.6384  140.8640  164.1637 C.ar    1  UNL1       -0.0206
     16 C         144.9814  139.4766  164.6190 C.ar    1  UNL1       -0.0042
     17 C         143.9577  138.6484  165.3374 C.ar    1  UNL1        0.0009
     18 C         142.5910  139.2077  165.6005 C.ar    1  UNL1        0.0146
     19 C         142.2480  140.5951  165.1452 C.ar    1  UNL1        0.0491
     20 C         143.2717  141.4233  164.4268 C.ar    1  UNL1        0.0104
     21 N         139.2800  140.1412  170.2466 N.pl3   1  UNL1       -0.3018
     22 H         138.6258  139.7329  170.8588 H       1  UNL1        0.1497
     23 C         140.4081  140.9640  170.7947 C.3     1  UNL1        0.1031
     24 C         141.8265  140.6860  171.1958 C.3     1  UNL1        0.0898
     25 N         142.0034  142.1278  171.5697 N.3     1  UNL1       -0.2946
     26 C         140.5851  142.4059  171.1686 C.3     1  UNL1        0.0898
     27 H         142.6989  142.6209  171.0097 H       1  UNL1        0.1233
@<TRIPOS>BOND
     1    14    15    1
     2    15    16   ar
     3    16    17   ar
     4    17    18   ar
     5    18    19   ar
     6    19    12    1
     7    12     1    1
     8     1     2   ar
     9     2     3   ar
    10     3    21    1
    11    21    23    1
    12    23    24    1
    13    24    25    1
    14    25    26    1
    15     3     4   ar
    16     4     5   ar
    17     5     6   ar
    18     6     7    1
    19     7     8   am
    20     7     9    2
    21    19    20   ar
    22    20    15   ar
    23     6     1   ar
    24    26    23    1
    25    12    13    1
    26    21    22    1
    27    25    27    1
    28     8    10    1
    29     8    11    1
@<TRIPOS>MOLECULE
*****
 27 29 0 0 0
SMALL
GASTEIGER

@<TRIPOS>ATOM
      1 C         138.0446  140.5587  163.9758 C.ar    1  UNL1        0.1409
      2 N         137.9181  142.0517  163.9053 N.ar    1  UNL1       -0.1986
      3 C         137.9120  142.7419  162.5735 C.ar    1  UNL1        0.2181
      4 N         138.0325  141.9390  161.3122 N.ar    1  UNL1       -0.2120
      5 C         138.1589  140.4460  161.3826 C.ar    1  UNL1        0.1091
      6 C         138.1650  139.7559  162.7143 C.ar    1  UNL1        0.1040
      7 C         138.2915  138.2629  162.7848 C.2     1  UNL1        0.2470
      8 N         137.6150  137.4036  161.7581 N.am    1  UNL1       -0.3252
      9 O         139.0945  137.6291  163.8819 O.2     1  UNL1       -0.2702
     10 H         137.0880  137.8195  161.0381 H       1  UNL1        0.1453
     11 H         137.6980  136.4237  161.8044 H       1  UNL1        0.1453
     12 N         138.0506  139.8685  165.3075 N.pl3   1  UNL1       -0.2977
     13 H         137.2762  139.3276  165.5851 H       1  UNL1        0.1536
     14 C         140.0536  140.0155  170.0998 C.3     1  UNL1        0.0311
     15 C         140.2380  140.0758  168.6124 C.ar    1  UNL1       -0.0206
     16 C         141.6082  140.2700  168.0337 C.ar    1  UNL1       -0.0042
     17 C         141.7925  140.3303  166.5463 C.ar    1  UNL1        0.0009
     18 C         140.6067  140.1965  165.6376 C.ar    1  UNL1        0.0146
     19 C         139.2365  140.0023  166.2162 C.ar    1  UNL1        0.0491
     20 C         139.0522  139.9420  167.7036 C.ar    1  UNL1        0.0104
     21 N         137.7855  144.2349  162.5031 N.pl3   1  UNL1       -0.3018
     22 H         136.8979  144.6497  162.4065 H       1  UNL1        0.1497
     23 C         139.0115  145.0958  162.5798 C.3     1  UNL1        0.1031
     24 C         139.5358  146.2666  161.8024 C.3     1  UNL1        0.0898
     25 N         140.7452  146.3134  162.6885 N.3     1  UNL1       -0.2946
     26 C         140.2209  145.1427  163.4659 C.3     1  UNL1        0.0898
     27 H         140.8291  147.1714  163.2336 H       1  UNL1        0.1233
@<TRIPOS>BOND
     1    14    15    1
     2    15    16   ar
     3    16    17   ar
     4    17    18   ar
     5    18    19   ar
     6    19    12    1
     7    12     1    1
     8     1     2   ar
     9     2     3   ar
    10     3    21    1
    11    21    23    1
    12    23    24    1
    13    24    25    1
    14    25    26    1
    15     3     4   ar
    16     4     5   ar
    17     5     6   ar
    18     6     7    1
    19     7     8   am
    20     7     9    2
    21    19    20   ar
    22    20    15   ar
    23     6     1   ar
    24    26    23    1
    25    12    13    1
    26    21    22    1
    27    25    27    1
    28     8    10    1
    29     8    11    1
@<TRIPOS>MOLECULE
*****
 27 29 0 0 0
SMALL
GASTEIGER

@<TRIPOS>ATOM
      1 C         140.3345  140.2930  166.2212 C.ar    1  UNL1        0.1409
      2 N         140.9375  141.1092  165.1166 N.ar    1  UNL1       -0.1986
      3 C         140.1111  141.4793  163.9206 C.ar    1  UNL1        0.2181
      4 N         138.6819  141.0333  163.8293 N.ar    1  UNL1       -0.2120
      5 C         138.0790  140.2171  164.9340 C.ar    1  UNL1        0.1091
      6 C         138.9052  139.8469  166.1299 C.ar    1  UNL1        0.1040
      7 C         138.3023  139.0307  167.2346 C.2     1  UNL1        0.2470
      8 N         137.5510  137.7728  166.9135 N.am    1  UNL1       -0.3252
      9 O         138.4506  139.4726  168.6604 O.2     1  UNL1       -0.2702
     10 H         137.4537  137.4828  165.9777 H       1  UNL1        0.1453
     11 H         137.1553  137.2371  167.6385 H       1  UNL1        0.1453
     12 N         141.1608  139.9228  167.4171 N.pl3   1  UNL1       -0.2977
     13 H         141.3914  138.9803  167.5835 H       1  UNL1        0.1536
     14 C         140.2914  144.3234  170.0401 C.3     1  UNL1        0.0311
     15 C         141.2009  143.1890  169.6712 C.ar    1  UNL1       -0.0206
     16 C         142.5851  143.1206  170.2448 C.ar    1  UNL1       -0.0042
     17 C         143.4946  141.9863  169.8758 C.ar    1  UNL1        0.0009
     18 C         143.0199  140.9204  168.9333 C.ar    1  UNL1        0.0146
     19 C         141.6356  140.9888  168.3597 C.ar    1  UNL1        0.0491
     20 C         140.7261  142.1231  168.7286 C.ar    1  UNL1        0.0104
     21 N         140.7141  142.2955  162.8159 N.pl3   1  UNL1       -0.3018
     22 H         140.9284  141.8735  161.9527 H       1  UNL1        0.1497
     23 C         140.9905  143.7547  163.0266 C.3     1  UNL1        0.1031
     24 C         142.1742  144.6514  162.8151 C.3     1  UNL1        0.0898
     25 N         141.3813  145.8184  163.3245 N.3     1  UNL1       -0.2946
     26 C         140.1975  144.9217  163.5360 C.3     1  UNL1        0.0898
     27 H         141.2294  146.5524  162.6327 H       1  UNL1        0.1233
@<TRIPOS>BOND
     1    14    15    1
     2    15    16   ar
     3    16    17   ar
     4    17    18   ar
     5    18    19   ar
     6    19    12    1
     7    12     1    1
     8     1     2   ar
     9     2     3   ar
    10     3    21    1
    11    21    23    1
    12    23    24    1
    13    24    25    1
    14    25    26    1
    15     3     4   ar
    16     4     5   ar
    17     5     6   ar
    18     6     7    1
    19     7     8   am
    20     7     9    2
    21    19    20   ar
    22    20    15   ar
    23     6     1   ar
    24    26    23    1
    25    12    13    1
    26    21    22    1
    27    25    27    1
    28     8    10    1
    29     8    11    1
@<TRIPOS>MOLECULE
*****
 27 29 0 0 0
SMALL
GASTEIGER

@<TRIPOS>ATOM
      1 C         140.1938  140.1455  166.2104 C.ar    1  UNL1        0.1409
      2 N         140.2737  140.4001  167.6865 N.ar    1  UNL1       -0.1986
      3 C         139.2221  139.8456  168.6013 C.ar    1  UNL1        0.2181
      4 N         138.0906  139.0365  168.0399 N.ar    1  UNL1       -0.2120
      5 C         138.0107  138.7819  166.5638 C.ar    1  UNL1        0.1091
      6 C         139.0623  139.3364  165.6491 C.ar    1  UNL1        0.1040
      7 C         138.9824  139.0817  164.1730 C.2     1  UNL1        0.2470
      8 N         139.0693  137.6793  163.6481 N.am    1  UNL1       -0.3252
      9 O         138.8156  140.2296  163.2219 O.2     1  UNL1       -0.2702
     10 H         139.1788  136.9259  164.2724 H       1  UNL1        0.1453
     11 H         139.0168  137.5122  162.6793 H       1  UNL1        0.1453
     12 N         141.2453  140.7000  165.2957 N.pl3   1  UNL1       -0.2977
     13 H         141.9648  140.1167  164.9620 H       1  UNL1        0.1536
     14 C         143.6121  144.9112  163.3814 C.3     1  UNL1        0.0311
     15 C         142.3841  144.2488  163.9322 C.ar    1  UNL1       -0.0206
     16 C         141.1115  145.0296  164.0766 C.ar    1  UNL1       -0.0042
     17 C         139.8836  144.3672  164.6274 C.ar    1  UNL1        0.0009
     18 C         139.9282  142.9241  165.0337 C.ar    1  UNL1        0.0146
     19 C         141.2007  142.1432  164.8893 C.ar    1  UNL1        0.0491
     20 C         142.4287  142.8056  164.3385 C.ar    1  UNL1        0.0104
     21 N         139.3020  140.1003  170.0773 N.pl3   1  UNL1       -0.3018
     22 H         138.6291  139.7106  170.6812 H       1  UNL1        0.1497
     23 C         140.4071  140.9486  170.6333 C.3     1  UNL1        0.1031
     24 C         140.5695  142.4061  170.9486 C.3     1  UNL1        0.0898
     25 N         141.9701  142.1482  171.4196 N.3     1  UNL1       -0.2946
     26 C         141.8077  140.6907  171.1044 C.3     1  UNL1        0.0898
     27 H         142.1197  142.3461  172.4090 H       1  UNL1        0.1233
@<TRIPOS>BOND
     1    14    15    1
     2    15    16   ar
     3    16    17   ar
     4    17    18   ar
     5    18    19   ar
     6    19    12    1
     7    12     1    1
     8     1     2   ar
     9     2     3   ar
    10     3    21    1
    11    21    23    1
    12    23    24    1
    13    24    25    1
    14    25    26    1
    15     3     4   ar
    16     4     5   ar
    17     5     6   ar
    18     6     7    1
    19     7     8   am
    20     7     9    2
    21    19    20   ar
    22    20    15   ar
    23     6     1   ar
    24    26    23    1
    25    12    13    1
    26    21    22    1
    27    25    27    1
    28     8    10    1
    29     8    11    1
@<TRIPOS>MOLECULE
*****
 27 29 0 0 0
SMALL
GASTEIGER

@<TRIPOS>ATOM
      1 C         141.0479  139.7786  166.0432 C.ar    1  UNL1        0.1409
      2 N         141.3769  140.0981  167.4713 N.ar    1  UNL1       -0.1986
      3 C         142.5995  139.5080  168.1094 C.ar    1  UNL1        0.2181
      4 N         143.4931  138.5986  167.3193 N.ar    1  UNL1       -0.2120
      5 C         143.1641  138.2791  165.8911 C.ar    1  UNL1        0.1091
      6 C         141.9416  138.8691  165.2530 C.ar    1  UNL1        0.1040
      7 C         141.6126  138.5496  163.8249 C.2     1  UNL1        0.2470
      8 N         141.4128  137.1244  163.4020 N.am    1  UNL1       -0.3252
      9 O         141.4833  139.6554  162.8196 O.2     1  UNL1       -0.2702
     10 H         141.4977  136.3987  164.0618 H       1  UNL1        0.1453
     11 H         141.1969  136.9147  162.4646 H       1  UNL1        0.1453
     12 N         139.8253  140.3686  165.4051 N.pl3   1  UNL1       -0.2977
     13 H         139.0392  139.8022  165.2305 H       1  UNL1        0.1536
     14 C         142.3397  144.7159  164.0713 C.3     1  UNL1        0.0311
     15 C         141.0576  143.9952  164.3662 C.ar    1  UNL1       -0.0206
     16 C         139.7508  144.7273  164.2890 C.ar    1  UNL1       -0.0042
     17 C         138.4687  144.0066  164.5839 C.ar    1  UNL1        0.0009
     18 C         138.4936  142.5537  164.9559 C.ar    1  UNL1        0.0146
     19 C         139.8004  141.8216  165.0331 C.ar    1  UNL1        0.0491
     20 C         141.0825  142.5423  164.7382 C.ar    1  UNL1        0.0104
     21 N         142.9285  139.8275  169.5376 N.pl3   1  UNL1       -0.3018
     22 H         143.1134  139.1001  170.1747 H       1  UNL1        0.1497
     23 C         142.9757  141.2553  169.9950 C.3     1  UNL1        0.1031
     24 C         143.9323  142.3963  169.8131 C.3     1  UNL1        0.0898
     25 N         143.0424  143.2745  170.6420 N.3     1  UNL1       -0.2946
     26 C         142.0859  142.1335  170.8239 C.3     1  UNL1        0.0898
     27 H         142.6518  144.0686  170.1348 H       1  UNL1        0.1233
@<TRIPOS>BOND
     1    14    15    1
     2    15    16   ar
     3    16    17   ar
     4    17    18   ar
     5    18    19   ar
     6    19    12    1
     7    12     1    1
     8     1     2   ar
     9     2     3   ar
    10     3    21    1
    11    21    23    1
    12    23    24    1
    13    24    25    1
    14    25    26    1
    15     3     4   ar
    16     4     5   ar
    17     5     6   ar
    18     6     7    1
    19     7     8   am
    20     7     9    2
    21    19    20   ar
    22    20    15   ar
    23     6     1   ar
    24    26    23    1
    25    12    13    1
    26    21    22    1
    27    25    27    1
    28     8    10    1
    29     8    11    1
@<TRIPOS>MOLECULE
*****
 27 29 0 0 0
SMALL
GASTEIGER

@<TRIPOS>ATOM
      1 C         140.9322  141.7964  166.9373 C.ar    1  UNL1        0.1409
      2 N         141.9665  142.0586  165.8830 N.ar    1  UNL1       -0.1986
      3 C         143.3401  142.5148  166.2769 C.ar    1  UNL1        0.2181
      4 N         143.6794  142.7087  167.7251 N.ar    1  UNL1       -0.2120
      5 C         142.6451  142.4465  168.7794 C.ar    1  UNL1        0.1091
      6 C         141.2715  141.9904  168.3855 C.ar    1  UNL1        0.1040
      7 C         140.2372  141.7282  169.4398 C.2     1  UNL1        0.2470
      8 N         139.8121  142.8305  170.3640 N.am    1  UNL1       -0.3252
      9 O         139.6281  140.3636  169.5699 O.2     1  UNL1       -0.2702
     10 H         140.2120  143.7261  170.2786 H       1  UNL1        0.1453
     11 H         139.1333  142.6584  171.0559 H       1  UNL1        0.1453
     12 N         139.5586  141.3403  166.5434 N.pl3   1  UNL1       -0.2977
     13 H         138.8071  141.9762  166.5531 H       1  UNL1        0.1536
     14 C         140.9958  137.1534  163.8222 C.3     1  UNL1        0.0311
     15 C         140.0486  137.8218  164.7741 C.ar    1  UNL1       -0.0206
     16 C         138.8729  137.0652  165.3173 C.ar    1  UNL1       -0.0042
     17 C         137.9257  137.7336  166.2692 C.ar    1  UNL1        0.0009
     18 C         138.1543  139.1586  166.6779 C.ar    1  UNL1        0.0146
     19 C         139.3300  139.9152  166.1347 C.ar    1  UNL1        0.0491
     20 C         140.2772  139.2468  165.1828 C.ar    1  UNL1        0.0104
     21 N         144.3744  142.7770  165.2227 N.pl3   1  UNL1       -0.3018
     22 H         145.2415  142.3120  165.2573 H       1  UNL1        0.1497
     23 C         144.0875  143.7477  164.1156 C.3     1  UNL1        0.1031
     24 C         143.4346  145.0953  164.0292 C.3     1  UNL1        0.0898
     25 N         143.6819  145.1203  162.5499 N.3     1  UNL1       -0.2946
     26 C         144.3348  143.7726  162.6363 C.3     1  UNL1        0.0898
     27 H         144.3064  145.8668  162.2446 H       1  UNL1        0.1233
@<TRIPOS>BOND
     1    14    15    1
     2    15    16   ar
     3    16    17   ar
     4    17    18   ar
     5    18    19   ar
     6    19    12    1
     7    12     1    1
     8     1     2   ar
     9     2     3   ar
    10     3    21    1
    11    21    23    1
    12    23    24    1
    13    24    25    1
    14    25    26    1
    15     3     4   ar
    16     4     5   ar
    17     5     6   ar
    18     6     7    1
    19     7     8   am
    20     7     9    2
    21    19    20   ar
    22    20    15   ar
    23     6     1   ar
    24    26    23    1
    25    12    13    1
    26    21    22    1
    27    25    27    1
    28     8    10    1
    29     8    11    1
@<TRIPOS>MOLECULE
*****
 27 29 0 0 0
SMALL
GASTEIGER

@<TRIPOS>ATOM
      1 C         140.9114  141.5572  166.6808 C.ar    1  UNL1        0.1409
      2 N         142.0146  142.1074  165.8263 N.ar    1  UNL1       -0.1986
      3 C         143.2733  142.6174  166.4633 C.ar    1  UNL1        0.2181
      4 N         143.4287  142.5772  167.9547 N.ar    1  UNL1       -0.2120
      5 C         142.3254  142.0269  168.8091 C.ar    1  UNL1        0.1091
      6 C         141.0668  141.5170  168.1722 C.ar    1  UNL1        0.1040
      7 C         139.9635  140.9668  169.0267 C.2     1  UNL1        0.2470
      8 N         139.5252  141.7082  170.2547 N.am    1  UNL1       -0.3252
      9 O         139.2986  139.6751  168.6530 O.2     1  UNL1       -0.2702
     10 H         139.9616  142.5559  170.4999 H       1  UNL1        0.1453
     11 H         138.8011  141.3470  170.8155 H       1  UNL1        0.1453
     12 N         139.6527  141.0472  166.0439 N.pl3   1  UNL1       -0.2977
     13 H         138.7948  141.4968  166.2200 H       1  UNL1        0.1536
     14 C         137.8845  138.4733  161.8907 C.3     1  UNL1        0.0311
     15 C         138.8171  138.5652  163.0620 C.ar    1  UNL1       -0.0206
     16 C         139.7981  137.4621  163.3280 C.ar    1  UNL1       -0.0042
     17 C         140.7306  137.5541  164.4993 C.ar    1  UNL1        0.0009
     18 C         140.6822  138.7491  165.4046 C.ar    1  UNL1        0.0146
     19 C         139.7012  139.8521  165.1386 C.ar    1  UNL1        0.0491
     20 C         138.7687  139.7602  163.9673 C.ar    1  UNL1        0.0104
     21 N         144.3766  143.1676  165.6089 N.pl3   1  UNL1       -0.3018
     22 H         144.8282  144.0037  165.8662 H       1  UNL1        0.1497
     23 C         144.7917  142.4439  164.3622 C.3     1  UNL1        0.1031
     24 C         145.4128  141.1110  164.0665 C.3     1  UNL1        0.0898
     25 N         145.3787  141.4206  162.5992 N.3     1  UNL1       -0.2946
     26 C         144.7576  142.7536  162.8949 C.3     1  UNL1        0.0898
     27 H         144.7838  140.7955  162.0554 H       1  UNL1        0.1233
@<TRIPOS>BOND
     1    14    15    1
     2    15    16   ar
     3    16    17   ar
     4    17    18   ar
     5    18    19   ar
     6    19    12    1
     7    12     1    1
     8     1     2   ar
     9     2     3   ar
    10     3    21    1
    11    21    23    1
    12    23    24    1
    13    24    25    1
    14    25    26    1
    15     3     4   ar
    16     4     5   ar
    17     5     6   ar
    18     6     7    1
    19     7     8   am
    20     7     9    2
    21    19    20   ar
    22    20    15   ar
    23     6     1   ar
    24    26    23    1
    25    12    13    1
    26    21    22    1
    27    25    27    1
    28     8    10    1
    29     8    11    1
