@<TRIPOS>MOLECULE
*****
 47 49 0 0 0
SMALL
GASTEIGER

@<TRIPOS>ATOM
      1 C         141.2022  141.1826  165.9224 C.3     1  UNL1        0.0988
      2 C         142.5618  141.3426  165.3092 C.ar    1  UNL1       -0.0020
      3 C         143.2729  142.6605  165.3951 C.ar    1  UNL1       -0.0001
      4 C         144.6324  142.8206  164.7819 C.ar    1  UNL1        0.0294
      5 C         145.2809  141.6627  164.0828 C.ar    1  UNL1        0.1401
      6 F         146.6405  141.8227  163.4696 F       1  UNL1       -0.2042
      7 C         144.5698  140.3447  163.9970 C.ar    1  UNL1        0.0294
      8 C         143.2103  140.1847  164.6101 C.ar    1  UNL1       -0.0001
      9 C         141.8339  140.9586  167.2643 C.ar    1  UNL1        0.0000
     10 C         142.0752  139.5622  167.7560 C.ar    1  UNL1        0.0272
     11 C         142.7069  139.3383  169.0980 C.ar    1  UNL1        0.1398
     12 F         142.9483  137.9419  169.5897 F       1  UNL1       -0.2042
     13 C         143.0972  140.5108  169.9483 C.ar    1  UNL1        0.0335
     14 C         142.8558  141.9072  169.4566 C.ar    1  UNL1        0.0734
     15 C         142.2242  142.1311  168.1146 C.ar    1  UNL1        0.0016
     16 C         143.2462  143.0797  170.3069 C.3     1  UNL1        0.4186
     17 F         143.6365  144.2521  171.1571 F       1  UNL1       -0.1659
     18 F         141.8146  143.5260  170.3486 F       1  UNL1       -0.1659
     19 F         144.6776  142.6334  170.2651 F       1  UNL1       -0.1659
     20 C         139.9955  142.7486  164.2368 C.2     1  UNL1        0.2401
     21 O         139.9351  143.4415  164.6264 O.2     1  UNL1       -0.2736
     22 N         140.5706  141.4065  164.5805 N.am    1  UNL1       -0.2991
     23 H         140.5334  140.6726  163.9253 H       1  UNL1        0.1500
     24 C         139.3638  142.9726  162.8948 C.3     1  UNL1        0.1730
     25 C         140.0272  143.8721  161.8943 C.3     1  UNL1        0.2851
     26 O         138.7801  144.7017  161.8133 O.3     1  UNL1       -0.3715
     27 H         138.1068  144.3322  162.4058 H       1  UNL1        0.2109
     28 C         140.6905  144.7715  160.8939 C.3     1  UNL1        0.4292
     29 F         141.3538  145.6710  159.8934 F       1  UNL1       -0.1672
     30 F         140.4116  145.9548  161.7727 F       1  UNL1       -0.1672
     31 F         141.0481  143.7068  159.8997 F       1  UNL1       -0.1672
     32 C         141.2742  143.0425  161.9753 C.3     1  UNL1        0.4292
     33 F         142.6019  142.3611  162.1274 F       1  UNL1       -0.1672
     34 F         142.1580  144.0984  162.5700 F       1  UNL1       -0.1672
     35 F         140.8606  141.7105  161.4230 F       1  UNL1       -0.1672
     36 N         138.0688  142.2971  162.5534 N.3     1  UNL1       -0.2900
     37 H         137.6290  142.0396  163.4369 H       1  UNL1        0.1237
     38 C         138.0323  139.7089  162.3301 C.3     1  UNL1        0.0171
     39 C         138.0681  141.0671  161.6947 C.3     1  UNL1        0.0545
     40 C         138.1003  141.0125  160.1960 C.3     1  UNL1        0.0171
     41 C         139.8427  141.0226  166.5356 C.3     1  UNL1        0.0528
     42 C         139.1377  139.7005  166.4624 C.ar    1  UNL1       -0.0199
     43 C         138.0393  139.3815  167.4328 C.ar    1  UNL1       -0.0042
     44 C         137.3345  138.0595  167.3596 C.ar    1  UNL1       -0.0003
     45 C         137.7280  137.0565  166.3159 C.ar    1  UNL1       -0.0000
     46 C         138.8264  137.3755  165.3456 C.ar    1  UNL1       -0.0003
     47 C         139.5313  138.6975  165.4188 C.ar    1  UNL1       -0.0042
@<TRIPOS>BOND
     1    38    39    1
     2    39    40    1
     3    39    36    1
     4    36    24    1
     5    24    20    1
     6    20    21    2
     7    20    22   am
     8    22     1    1
     9     1    41    1
    10    41    42    1
    11    42    43   ar
    12    43    44   ar
    13    44    45   ar
    14    45    46   ar
    15    46    47   ar
    16     1     2    1
    17     2     3   ar
    18     3     4   ar
    19     4     5   ar
    20     5     6    1
    21     5     7   ar
    22     7     8   ar
    23     1     9    1
    24     9    10   ar
    25    10    11   ar
    26    11    12    1
    27    11    13   ar
    28    13    14   ar
    29    14    16    1
    30    16    17    1
    31    16    18    1
    32    16    19    1
    33    14    15   ar
    34    24    25    1
    35    25    26    1
    36    25    28    1
    37    28    29    1
    38    28    30    1
    39    28    31    1
    40    25    32    1
    41    32    33    1
    42    32    34    1
    43    32    35    1
    44    47    42   ar
    45     8     2   ar
    46    15     9   ar
    47    36    37    1
    48    22    23    1
    49    26    27    1
@<TRIPOS>MOLECULE
*****
 47 49 0 0 0
SMALL
GASTEIGER

@<TRIPOS>ATOM
      1 C         141.2553  141.3223  165.8208 C.3     1  UNL1        0.0988
      2 C         140.2538  140.2280  166.0438 C.ar    1  UNL1       -0.0020
      3 C         139.3162  140.2962  167.2126 C.ar    1  UNL1       -0.0001
      4 C         138.3148  139.2019  167.4356 C.ar    1  UNL1        0.0294
      5 C         138.2509  138.0396  166.4897 C.ar    1  UNL1        0.1401
      6 F         137.2495  136.9453  166.7126 F       1  UNL1       -0.2042
      7 C         139.1885  137.9714  165.3208 C.ar    1  UNL1        0.0294
      8 C         140.1900  139.0656  165.0979 C.ar    1  UNL1       -0.0001
      9 C         141.8495  141.0536  167.1716 C.ar    1  UNL1        0.0000
     10 C         142.0702  139.6414  167.6264 C.ar    1  UNL1        0.0272
     11 C         142.6645  139.3727  168.9773 C.ar    1  UNL1        0.1398
     12 F         142.8852  137.9604  169.4321 F       1  UNL1       -0.2042
     13 C         143.0381  140.5162  169.8732 C.ar    1  UNL1        0.0335
     14 C         142.8173  141.9284  169.4184 C.ar    1  UNL1        0.0734
     15 C         142.2231  142.1972  168.0676 C.ar    1  UNL1        0.0016
     16 C         143.1909  143.0720  170.3144 C.3     1  UNL1        0.4186
     17 F         143.5644  144.2155  171.2104 F       1  UNL1       -0.1659
     18 F         144.6306  142.6565  170.2445 F       1  UNL1       -0.1659
     19 F         141.7513  143.4874  170.3844 F       1  UNL1       -0.1659
     20 C         139.5239  142.5593  164.3301 C.2     1  UNL1        0.2401
     21 O         139.1155  143.0119  164.8438 O.2     1  UNL1       -0.2736
     22 N         140.6610  141.5910  164.4701 N.am    1  UNL1       -0.2991
     23 H         141.0173  141.1319  163.6754 H       1  UNL1        0.1500
     24 C         138.9297  142.8280  162.9793 C.3     1  UNL1        0.1730
     25 C         138.7691  141.7082  161.9943 C.3     1  UNL1        0.2851
     26 O         137.9989  140.9221  163.0135 O.3     1  UNL1       -0.3715
     27 H         137.9308  141.4353  163.8338 H       1  UNL1        0.2109
     28 C         138.6086  140.5884  161.0093 C.3     1  UNL1        0.4292
     29 F         138.4480  139.4685  160.0244 F       1  UNL1       -0.1672
     30 F         137.1299  140.5786  161.2614 F       1  UNL1       -0.1672
     31 F         140.0566  140.4615  160.6391 F       1  UNL1       -0.1672
     32 C         139.5393  142.4942  160.9750 C.3     1  UNL1        0.4292
     33 F         140.1518  143.2943  159.8638 F       1  UNL1       -0.1672
     34 F         138.3953  142.7515  160.0398 F       1  UNL1       -0.1672
     35 F         140.9360  142.5266  161.5213 F       1  UNL1       -0.1672
     36 N         138.4960  144.2166  162.6135 N.3     1  UNL1       -0.2900
     37 H         137.9689  144.1408  161.7435 H       1  UNL1        0.1237
     38 C         140.7406  145.3435  163.2780 C.3     1  UNL1        0.0171
     39 C         139.5207  145.2924  162.4067 C.3     1  UNL1        0.0545
     40 C         139.4848  146.3886  161.3836 C.3     1  UNL1        0.0171
     41 C         142.2567  142.4166  165.5980 C.3     1  UNL1        0.0528
     42 C         143.3531  142.2360  164.5902 C.ar    1  UNL1       -0.0199
     43 C         143.5912  143.2852  163.5450 C.ar    1  UNL1       -0.0042
     44 C         144.6876  143.1046  162.5373 C.ar    1  UNL1       -0.0003
     45 C         145.5457  141.8750  162.5749 C.ar    1  UNL1       -0.0000
     46 C         145.3076  140.8258  163.6201 C.ar    1  UNL1       -0.0003
     47 C         144.2113  141.0064  164.6278 C.ar    1  UNL1       -0.0042
@<TRIPOS>BOND
     1    38    39    1
     2    39    40    1
     3    39    36    1
     4    36    24    1
     5    24    20    1
     6    20    21    2
     7    20    22   am
     8    22     1    1
     9     1    41    1
    10    41    42    1
    11    42    43   ar
    12    43    44   ar
    13    44    45   ar
    14    45    46   ar
    15    46    47   ar
    16     1     2    1
    17     2     3   ar
    18     3     4   ar
    19     4     5   ar
    20     5     6    1
    21     5     7   ar
    22     7     8   ar
    23     1     9    1
    24     9    10   ar
    25    10    11   ar
    26    11    12    1
    27    11    13   ar
    28    13    14   ar
    29    14    16    1
    30    16    17    1
    31    16    18    1
    32    16    19    1
    33    14    15   ar
    34    24    25    1
    35    25    26    1
    36    25    28    1
    37    28    29    1
    38    28    30    1
    39    28    31    1
    40    25    32    1
    41    32    33    1
    42    32    34    1
    43    32    35    1
    44    47    42   ar
    45     8     2   ar
    46    15     9   ar
    47    36    37    1
    48    22    23    1
    49    26    27    1
@<TRIPOS>MOLECULE
*****
 47 49 0 0 0
SMALL
GASTEIGER

@<TRIPOS>ATOM
      1 C         140.7835  141.2524  165.2121 C.3     1  UNL1        0.0988
      2 C         139.9426  140.0390  165.4779 C.ar    1  UNL1       -0.0020
      3 C         138.7690  140.1288  166.4078 C.ar    1  UNL1       -0.0001
      4 C         137.9281  138.9155  166.6736 C.ar    1  UNL1        0.0294
      5 C         138.2608  137.6123  166.0097 C.ar    1  UNL1        0.1401
      6 F         137.4199  136.3989  166.2755 F       1  UNL1       -0.2042
      7 C         139.4344  137.5224  165.0798 C.ar    1  UNL1        0.0294
      8 C         140.2753  138.7357  164.8140 C.ar    1  UNL1       -0.0001
      9 C         141.0025  141.4235  166.6861 C.ar    1  UNL1        0.0000
     10 C         140.5807  142.6930  167.3646 C.ar    1  UNL1        0.0272
     11 C         140.7998  142.8640  168.8387 C.ar    1  UNL1        0.1398
     12 F         140.3779  144.1335  169.5173 F       1  UNL1       -0.2042
     13 C         141.4406  141.7656  169.6341 C.ar    1  UNL1        0.0335
     14 C         141.8624  140.4961  168.9556 C.ar    1  UNL1        0.0734
     15 C         141.6434  140.3250  167.4816 C.ar    1  UNL1        0.0016
     16 C         142.5033  139.3977  169.7511 C.3     1  UNL1        0.4186
     17 F         143.1442  138.2993  170.5466 F       1  UNL1       -0.1659
     18 F         142.7886  138.6467  168.4843 F       1  UNL1       -0.1659
     19 F         142.2181  140.1487  171.0178 F       1  UNL1       -0.1659
     20 C         139.5216  141.8987  163.0349 C.2     1  UNL1        0.2401
     21 O         139.0031  142.4565  163.2708 O.2     1  UNL1       -0.2736
     22 N         140.5644  141.0813  163.7381 N.am    1  UNL1       -0.2991
     23 H         141.1051  140.4325  163.2321 H       1  UNL1        0.1500
     24 C         139.3025  141.7276  161.5609 C.3     1  UNL1        0.1730
     25 C         139.7922  140.4903  160.8685 C.3     1  UNL1        0.2851
     26 O         141.2062  140.9709  161.0097 O.3     1  UNL1       -0.3715
     27 H         141.2124  141.8289  161.4622 H       1  UNL1        0.2109
     28 C         140.2819  139.2531  160.1761 C.3     1  UNL1        0.4292
     29 F         140.7716  138.0159  159.4838 F       1  UNL1       -0.1672
     30 F         140.9545  140.1007  159.1372 F       1  UNL1       -0.1672
     31 F         139.6741  138.2611  161.1229 F       1  UNL1       -0.1672
     32 C         138.3784  140.0097  160.7273 C.3     1  UNL1        0.4292
     33 F         136.9876  139.5488  160.4056 F       1  UNL1       -0.1672
     34 F         138.3088  140.0831  159.2308 F       1  UNL1       -0.1672
     35 F         137.9357  139.7644  162.1395 F       1  UNL1       -0.1672
     36 N         138.5938  142.7938  160.7793 N.3     1  UNL1       -0.2900
     37 H         137.7460  142.3690  160.4036 H       1  UNL1        0.1237
     38 C         140.2355  144.5998  159.8885 C.3     1  UNL1        0.0171
     39 C         139.2858  143.4675  159.6315 C.3     1  UNL1        0.0545
     40 C         139.1456  143.1394  158.1746 C.3     1  UNL1        0.0171
     41 C         141.6243  142.4657  164.9463 C.3     1  UNL1        0.0528
     42 C         142.9546  142.3225  164.2680 C.ar    1  UNL1       -0.0199
     43 C         143.3076  143.2128  163.1136 C.ar    1  UNL1       -0.0042
     44 C         144.6378  143.0695  162.4354 C.ar    1  UNL1       -0.0003
     45 C         145.6150  142.0359  162.9116 C.ar    1  UNL1       -0.0000
     46 C         145.2620  141.1456  164.0660 C.ar    1  UNL1       -0.0003
     47 C         143.9318  141.2889  164.7442 C.ar    1  UNL1       -0.0042
@<TRIPOS>BOND
     1    38    39    1
     2    39    40    1
     3    39    36    1
     4    36    24    1
     5    24    20    1
     6    20    21    2
     7    20    22   am
     8    22     1    1
     9     1    41    1
    10    41    42    1
    11    42    43   ar
    12    43    44   ar
    13    44    45   ar
    14    45    46   ar
    15    46    47   ar
    16     1     2    1
    17     2     3   ar
    18     3     4   ar
    19     4     5   ar
    20     5     6    1
    21     5     7   ar
    22     7     8   ar
    23     1     9    1
    24     9    10   ar
    25    10    11   ar
    26    11    12    1
    27    11    13   ar
    28    13    14   ar
    29    14    16    1
    30    16    17    1
    31    16    18    1
    32    16    19    1
    33    14    15   ar
    34    24    25    1
    35    25    26    1
    36    25    28    1
    37    28    29    1
    38    28    30    1
    39    28    31    1
    40    25    32    1
    41    32    33    1
    42    32    34    1
    43    32    35    1
    44    47    42   ar
    45     8     2   ar
    46    15     9   ar
    47    36    37    1
    48    22    23    1
    49    26    27    1
@<TRIPOS>MOLECULE
*****
 47 49 0 0 0
SMALL
GASTEIGER

@<TRIPOS>ATOM
      1 C         140.8667  141.3312  165.3901 C.3     1  UNL1        0.0988
      2 C         140.0089  140.1205  165.6105 C.ar    1  UNL1       -0.0020
      3 C         138.8756  140.1729  166.5918 C.ar    1  UNL1       -0.0001
      4 C         138.0178  138.9623  166.8123 C.ar    1  UNL1        0.0294
      5 C         138.2934  137.6993  166.0515 C.ar    1  UNL1        0.1401
      6 F         137.4356  136.4886  166.2719 F       1  UNL1       -0.2042
      7 C         139.4267  137.6469  165.0703 C.ar    1  UNL1        0.0294
      8 C         140.2845  138.8575  164.8498 C.ar    1  UNL1       -0.0001
      9 C         141.1432  141.4033  166.8626 C.ar    1  UNL1        0.0000
     10 C         140.8363  142.6595  167.6227 C.ar    1  UNL1        0.0272
     11 C         141.1129  142.7316  169.0953 C.ar    1  UNL1        0.1398
     12 F         140.8060  143.9878  169.8554 F       1  UNL1       -0.2042
     13 C         141.6964  141.5475  169.8076 C.ar    1  UNL1        0.0335
     14 C         142.0033  140.2914  169.0475 C.ar    1  UNL1        0.0734
     15 C         141.7267  140.2192  167.5750 C.ar    1  UNL1        0.0016
     16 C         142.5868  139.1072  169.7599 C.3     1  UNL1        0.4186
     17 F         143.1703  137.9232  170.4723 F       1  UNL1       -0.1659
     18 F         142.9530  138.4940  168.4408 F       1  UNL1       -0.1659
     19 F         142.2206  139.7205  171.0789 F       1  UNL1       -0.1659
     20 C         139.4641  142.0543  163.3261 C.2     1  UNL1        0.2401
     21 O         138.9219  142.5553  163.6272 O.2     1  UNL1       -0.2736
     22 N         140.5901  141.2591  163.9176 N.am    1  UNL1       -0.2991
     23 H         141.1476  140.6899  163.3393 H       1  UNL1        0.1500
     24 C         139.1875  141.9822  161.8536 C.3     1  UNL1        0.1730
     25 C         139.1687  140.6532  161.1582 C.3     1  UNL1        0.2851
     26 O         138.1814  140.1406  162.1646 O.3     1  UNL1       -0.3715
     27 H         137.9801  140.8404  162.8055 H       1  UNL1        0.2109
     28 C         139.1498  139.3243  160.4629 C.3     1  UNL1        0.4292
     29 F         139.1310  137.9954  159.7675 F       1  UNL1       -0.1672
     30 F         137.6660  139.4425  160.2771 F       1  UNL1       -0.1672
     31 F         140.6202  139.0450  160.5625 F       1  UNL1       -0.1672
     32 C         140.1559  141.1658  160.1519 C.3     1  UNL1        0.4292
     33 F         141.0098  141.6587  159.0215 F       1  UNL1       -0.1672
     34 F         139.2507  141.0998  158.9577 F       1  UNL1       -0.1672
     35 F         141.3974  141.4154  160.9559 F       1  UNL1       -0.1672
     36 N         138.9297  143.2390  161.0765 N.3     1  UNL1       -0.2900
     37 H         138.9498  142.9840  160.0891 H       1  UNL1        0.1237
     38 C         139.4779  145.5226  162.1878 C.3     1  UNL1        0.0171
     39 C         139.8402  144.4203  161.2372 C.3     1  UNL1        0.0545
     40 C         141.1420  144.6593  160.5314 C.3     1  UNL1        0.0171
     41 C         141.7244  142.5419  165.1697 C.3     1  UNL1        0.0528
     42 C         143.0082  142.4220  164.4031 C.ar    1  UNL1       -0.0199
     43 C         143.2949  143.3607  163.2688 C.ar    1  UNL1       -0.0042
     44 C         144.5787  143.2408  162.5024 C.ar    1  UNL1       -0.0003
     45 C         145.5758  142.1823  162.8702 C.ar    1  UNL1       -0.0000
     46 C         145.2891  141.2436  164.0045 C.ar    1  UNL1       -0.0003
     47 C         144.0053  141.3635  164.7710 C.ar    1  UNL1       -0.0042
@<TRIPOS>BOND
     1    38    39    1
     2    39    40    1
     3    39    36    1
     4    36    24    1
     5    24    20    1
     6    20    21    2
     7    20    22   am
     8    22     1    1
     9     1    41    1
    10    41    42    1
    11    42    43   ar
    12    43    44   ar
    13    44    45   ar
    14    45    46   ar
    15    46    47   ar
    16     1     2    1
    17     2     3   ar
    18     3     4   ar
    19     4     5   ar
    20     5     6    1
    21     5     7   ar
    22     7     8   ar
    23     1     9    1
    24     9    10   ar
    25    10    11   ar
    26    11    12    1
    27    11    13   ar
    28    13    14   ar
    29    14    16    1
    30    16    17    1
    31    16    18    1
    32    16    19    1
    33    14    15   ar
    34    24    25    1
    35    25    26    1
    36    25    28    1
    37    28    29    1
    38    28    30    1
    39    28    31    1
    40    25    32    1
    41    32    33    1
    42    32    34    1
    43    32    35    1
    44    47    42   ar
    45     8     2   ar
    46    15     9   ar
    47    36    37    1
    48    22    23    1
    49    26    27    1
@<TRIPOS>MOLECULE
*****
 47 49 0 0 0
SMALL
GASTEIGER

@<TRIPOS>ATOM
      1 C         140.9137  141.0034  165.5258 C.3     1  UNL1        0.0988
      2 C         140.0221  139.8030  165.6451 C.ar    1  UNL1       -0.0020
      3 C         138.8146  139.8510  166.5338 C.ar    1  UNL1       -0.0001
      4 C         137.9230  138.6507  166.6531 C.ar    1  UNL1        0.0294
      5 C         138.2388  137.4024  165.8837 C.ar    1  UNL1        0.1401
      6 F         137.3472  136.2020  166.0030 F       1  UNL1       -0.2042
      7 C         139.4463  137.3544  164.9951 C.ar    1  UNL1        0.0294
      8 C         140.3379  138.5547  164.8757 C.ar    1  UNL1       -0.0001
      9 C         141.1228  140.9955  167.0111 C.ar    1  UNL1        0.0000
     10 C         141.9468  139.9153  167.6468 C.ar    1  UNL1        0.0272
     11 C         142.1560  139.9075  169.1322 C.ar    1  UNL1        0.1398
     12 F         142.9799  138.8273  169.7679 F       1  UNL1       -0.2042
     13 C         141.5411  140.9800  169.9818 C.ar    1  UNL1        0.0335
     14 C         140.7171  142.0602  169.3460 C.ar    1  UNL1        0.0734
     15 C         140.5080  142.0680  167.8607 C.ar    1  UNL1        0.0016
     16 C         140.1023  143.1327  170.1957 C.3     1  UNL1        0.4186
     17 F         139.4874  144.2051  171.0453 F       1  UNL1       -0.1659
     18 F         141.2479  144.0455  169.8725 F       1  UNL1       -0.1659
     19 F         138.9568  142.2199  170.5189 F       1  UNL1       -0.1659
     20 C         139.6033  141.8356  163.4425 C.2     1  UNL1        0.2401
     21 O         139.0459  142.3184  163.7453 O.2     1  UNL1       -0.2736
     22 N         140.7046  141.0112  164.0405 N.am    1  UNL1       -0.2991
     23 H         141.2901  140.4752  163.4581 H       1  UNL1        0.1500
     24 C         139.3941  141.8434  161.9572 C.3     1  UNL1        0.1730
     25 C         139.4131  140.5543  161.1903 C.3     1  UNL1        0.2851
     26 O         138.3849  139.9847  162.1222 O.3     1  UNL1       -0.3715
     27 H         138.1517  140.6479  162.7906 H       1  UNL1        0.2109
     28 C         139.4321  139.2653  160.4235 C.3     1  UNL1        0.4292
     29 F         139.4510  137.9763  159.6566 F       1  UNL1       -0.1672
     30 F         137.9548  139.3819  160.1908 F       1  UNL1       -0.1672
     31 F         140.9006  138.9924  160.5609 F       1  UNL1       -0.1672
     32 C         140.4413  141.1238  160.2584 C.3     1  UNL1        0.4292
     33 F         141.3418  141.6807  159.1958 F       1  UNL1       -0.1672
     34 F         139.5890  141.1247  159.0242 F       1  UNL1       -0.1672
     35 F         141.6460  141.3286  161.1285 F       1  UNL1       -0.1672
     36 N         139.1660  143.1402  161.2387 N.3     1  UNL1       -0.2900
     37 H         139.2533  142.9437  160.2416 H       1  UNL1        0.1237
     38 C         139.5774  145.3931  162.4656 C.3     1  UNL1        0.0171
     39 C         140.0448  144.3214  161.5259 C.3     1  UNL1        0.0545
     40 C         141.4098  144.5887  160.9645 C.3     1  UNL1        0.0171
     41 C         141.8053  142.2037  165.4066 C.3     1  UNL1        0.0528
     42 C         143.0796  142.1162  164.6201 C.ar    1  UNL1       -0.0199
     43 C         144.0154  140.9637  164.8340 C.ar    1  UNL1       -0.0042
     44 C         145.2897  140.8763  164.0475 C.ar    1  UNL1       -0.0003
     45 C         145.6281  141.9415  163.0471 C.ar    1  UNL1       -0.0000
     46 C         144.6923  143.0941  162.8332 C.ar    1  UNL1       -0.0003
     47 C         143.4181  143.1814  163.6197 C.ar    1  UNL1       -0.0042
@<TRIPOS>BOND
     1    38    39    1
     2    39    40    1
     3    39    36    1
     4    36    24    1
     5    24    20    1
     6    20    21    2
     7    20    22   am
     8    22     1    1
     9     1    41    1
    10    41    42    1
    11    42    43   ar
    12    43    44   ar
    13    44    45   ar
    14    45    46   ar
    15    46    47   ar
    16     1     2    1
    17     2     3   ar
    18     3     4   ar
    19     4     5   ar
    20     5     6    1
    21     5     7   ar
    22     7     8   ar
    23     1     9    1
    24     9    10   ar
    25    10    11   ar
    26    11    12    1
    27    11    13   ar
    28    13    14   ar
    29    14    16    1
    30    16    17    1
    31    16    18    1
    32    16    19    1
    33    14    15   ar
    34    24    25    1
    35    25    26    1
    36    25    28    1
    37    28    29    1
    38    28    30    1
    39    28    31    1
    40    25    32    1
    41    32    33    1
    42    32    34    1
    43    32    35    1
    44    47    42   ar
    45     8     2   ar
    46    15     9   ar
    47    36    37    1
    48    22    23    1
    49    26    27    1
@<TRIPOS>MOLECULE
*****
 47 49 0 0 0
SMALL
GASTEIGER

@<TRIPOS>ATOM
      1 C         140.7307  140.6699  165.4790 C.3     1  UNL1        0.0988
      2 C         142.0858  140.0299  165.5449 C.ar    1  UNL1       -0.0020
      3 C         143.2225  140.5965  164.7469 C.ar    1  UNL1       -0.0001
      4 C         144.5775  139.9565  164.8128 C.ar    1  UNL1        0.0294
      5 C         144.7957  138.7499  165.6767 C.ar    1  UNL1        0.1401
      6 F         146.1508  138.1099  165.7426 F       1  UNL1       -0.2042
      7 C         143.6590  138.1833  166.4747 C.ar    1  UNL1        0.0294
      8 C         142.3040  138.8233  166.4088 C.ar    1  UNL1       -0.0001
      9 C         140.7584  140.8813  166.9637 C.ar    1  UNL1        0.0000
     10 C         139.6173  140.4015  167.8110 C.ar    1  UNL1        0.0272
     11 C         139.6450  140.6128  169.2958 C.ar    1  UNL1        0.1398
     12 F         138.5040  140.1330  170.1431 F       1  UNL1       -0.2042
     13 C         140.8137  141.3040  169.9333 C.ar    1  UNL1        0.0335
     14 C         141.9547  141.7838  169.0861 C.ar    1  UNL1        0.0734
     15 C         141.9271  141.5725  167.6013 C.ar    1  UNL1        0.0016
     16 C         143.1234  142.4750  169.7236 C.3     1  UNL1        0.4186
     17 F         144.2921  143.1662  170.3611 F       1  UNL1       -0.1659
     18 F         142.4368  142.4075  171.0556 F       1  UNL1       -0.1659
     19 F         143.8100  142.5426  168.3917 F       1  UNL1       -0.1659
     20 C         140.2942  139.1287  163.4334 C.2     1  UNL1        0.2401
     21 O         140.0653  138.4376  163.7580 O.2     1  UNL1       -0.2736
     22 N         140.7031  140.4586  163.9942 N.am    1  UNL1       -0.2991
     23 H         140.9533  141.1927  163.3878 H       1  UNL1        0.1500
     24 C         140.2666  138.9174  161.9487 C.3     1  UNL1        0.1730
     25 C         139.5225  139.8772  161.0682 C.3     1  UNL1        0.2851
     26 O         140.8024  140.6044  160.7794 O.3     1  UNL1       -0.3715
     27 H         141.5319  140.1760  161.2539 H       1  UNL1        0.2109
     28 C         138.7786  140.8370  160.1877 C.3     1  UNL1        0.4292
     29 F         138.0346  141.7968  159.3073 F       1  UNL1       -0.1672
     30 F         139.2913  141.9850  161.0058 F       1  UNL1       -0.1672
     31 F         138.1790  139.8147  159.2684 F       1  UNL1       -0.1672
     32 C         138.2428  139.1501  161.3569 C.3     1  UNL1        0.4292
     33 F         137.0391  138.2789  161.5623 F       1  UNL1       -0.1672
     34 F         138.6295  137.8434  160.7304 F       1  UNL1       -0.1672
     35 F         137.4024  140.1651  162.0738 F       1  UNL1       -0.1672
     36 N         140.9830  137.7462  161.3443 N.3     1  UNL1       -0.2900
     37 H         140.9376  136.9893  162.0266 H       1  UNL1        0.1237
     38 C         142.7900  137.8784  159.4823 C.3     1  UNL1        0.0171
     39 C         142.4206  137.8757  160.9361 C.3     1  UNL1        0.0545
     40 C         143.6078  138.0108  161.8427 C.3     1  UNL1        0.0171
     41 C         139.3757  141.3100  165.4131 C.3     1  UNL1        0.0528
     42 C         139.1808  142.5744  164.6300 C.ar    1  UNL1       -0.0199
     43 C         137.8973  142.8077  163.8896 C.ar    1  UNL1       -0.0042
     44 C         137.7024  144.0722  163.1066 C.ar    1  UNL1       -0.0003
     45 C         138.7910  145.1033  163.0639 C.ar    1  UNL1       -0.0000
     46 C         140.0745  144.8699  163.8043 C.ar    1  UNL1       -0.0003
     47 C         140.2694  143.6055  164.5873 C.ar    1  UNL1       -0.0042
@<TRIPOS>BOND
     1    38    39    1
     2    39    40    1
     3    39    36    1
     4    36    24    1
     5    24    20    1
     6    20    21    2
     7    20    22   am
     8    22     1    1
     9     1    41    1
    10    41    42    1
    11    42    43   ar
    12    43    44   ar
    13    44    45   ar
    14    45    46   ar
    15    46    47   ar
    16     1     2    1
    17     2     3   ar
    18     3     4   ar
    19     4     5   ar
    20     5     6    1
    21     5     7   ar
    22     7     8   ar
    23     1     9    1
    24     9    10   ar
    25    10    11   ar
    26    11    12    1
    27    11    13   ar
    28    13    14   ar
    29    14    16    1
    30    16    17    1
    31    16    18    1
    32    16    19    1
    33    14    15   ar
    34    24    25    1
    35    25    26    1
    36    25    28    1
    37    28    29    1
    38    28    30    1
    39    28    31    1
    40    25    32    1
    41    32    33    1
    42    32    34    1
    43    32    35    1
    44    47    42   ar
    45     8     2   ar
    46    15     9   ar
    47    36    37    1
    48    22    23    1
    49    26    27    1
@<TRIPOS>MOLECULE
*****
 47 49 0 0 0
SMALL
GASTEIGER

@<TRIPOS>ATOM
      1 C         140.6026  141.8437  165.5548 C.3     1  UNL1        0.0988
      2 C         139.9457  140.4960  165.6036 C.ar    1  UNL1       -0.0020
      3 C         138.6149  140.3342  166.2766 C.ar    1  UNL1       -0.0001
      4 C         137.9580  138.9867  166.3254 C.ar    1  UNL1        0.0294
      5 C         138.6318  137.8008  165.7012 C.ar    1  UNL1        0.1401
      6 F         137.9749  136.4531  165.7499 F       1  UNL1       -0.2042
      7 C         139.9626  137.9626  165.0281 C.ar    1  UNL1        0.0294
      8 C         140.6195  139.3101  164.9793 C.ar    1  UNL1       -0.0001
      9 C         140.8391  141.7819  167.0347 C.ar    1  UNL1        0.0000
     10 C         140.4074  142.9200  167.9113 C.ar    1  UNL1        0.0272
     11 C         140.6439  142.8582  169.3914 C.ar    1  UNL1        0.1398
     12 F         140.2123  143.9962  170.2680 F       1  UNL1       -0.2042
     13 C         141.3120  141.6583  169.9946 C.ar    1  UNL1        0.0335
     14 C         141.7437  140.5203  169.1180 C.ar    1  UNL1        0.0734
     15 C         141.5072  140.5820  167.6381 C.ar    1  UNL1        0.0016
     16 C         142.4118  139.3204  169.7214 C.3     1  UNL1        0.4186
     17 F         143.0799  138.1206  170.3248 F       1  UNL1       -0.1659
     18 F         142.6370  138.7561  168.3499 F       1  UNL1       -0.1659
     19 F         142.1865  139.8846  171.0928 F       1  UNL1       -0.1659
     20 C         139.2185  142.7039  163.5314 C.2     1  UNL1        0.2401
     21 O         138.6459  143.1477  163.8641 O.2     1  UNL1       -0.2736
     22 N         140.3662  141.9054  164.0749 N.am    1  UNL1       -0.2991
     23 H         140.9642  141.4218  163.4602 H       1  UNL1        0.1500
     24 C         138.9820  142.7657  162.0514 C.3     1  UNL1        0.1730
     25 C         139.9385  143.5125  161.1696 C.3     1  UNL1        0.2851
     26 O         139.6174  144.7839  161.8980 O.3     1  UNL1       -0.3715
     27 H         138.9651  144.6026  162.5927 H       1  UNL1        0.2109
     28 C         140.8948  144.2593  160.2878 C.3     1  UNL1        0.4292
     29 F         141.8512  145.0061  159.4060 F       1  UNL1       -0.1672
     30 F         139.8230  145.2605  159.9731 F       1  UNL1       -0.1672
     31 F         142.0752  143.3567  160.4926 F       1  UNL1       -0.1672
     32 C         140.2596  142.2412  160.4412 C.3     1  UNL1        0.4292
     33 F         140.4971  141.0448  159.5681 F       1  UNL1       -0.1672
     34 F         139.6371  142.6195  159.1300 F       1  UNL1       -0.1672
     35 F         140.9842  141.4122  161.4600 F       1  UNL1       -0.1672
     36 N         137.7892  142.0807  161.4533 N.3     1  UNL1       -0.2900
     37 H         136.9739  142.3971  161.9783 H       1  UNL1        0.1237
     38 C         137.4730  139.8748  160.1175 C.3     1  UNL1        0.0171
     39 C         137.7252  140.5825  161.4158 C.3     1  UNL1        0.0545
     40 C         137.8899  139.6427  162.5732 C.3     1  UNL1        0.0171
     41 C         141.2595  143.1913  165.5061 C.3     1  UNL1        0.0528
     42 C         142.3891  143.4409  164.5512 C.ar    1  UNL1       -0.0199
     43 C         143.4243  142.3803  164.3202 C.ar    1  UNL1       -0.0042
     44 C         144.5538  142.6300  163.3654 C.ar    1  UNL1       -0.0003
     45 C         144.6481  143.9404  162.6415 C.ar    1  UNL1       -0.0000
     46 C         143.6129  145.0010  162.8724 C.ar    1  UNL1       -0.0003
     47 C         142.4834  144.7513  163.8272 C.ar    1  UNL1       -0.0042
@<TRIPOS>BOND
     1    38    39    1
     2    39    40    1
     3    39    36    1
     4    36    24    1
     5    24    20    1
     6    20    21    2
     7    20    22   am
     8    22     1    1
     9     1    41    1
    10    41    42    1
    11    42    43   ar
    12    43    44   ar
    13    44    45   ar
    14    45    46   ar
    15    46    47   ar
    16     1     2    1
    17     2     3   ar
    18     3     4   ar
    19     4     5   ar
    20     5     6    1
    21     5     7   ar
    22     7     8   ar
    23     1     9    1
    24     9    10   ar
    25    10    11   ar
    26    11    12    1
    27    11    13   ar
    28    13    14   ar
    29    14    16    1
    30    16    17    1
    31    16    18    1
    32    16    19    1
    33    14    15   ar
    34    24    25    1
    35    25    26    1
    36    25    28    1
    37    28    29    1
    38    28    30    1
    39    28    31    1
    40    25    32    1
    41    32    33    1
    42    32    34    1
    43    32    35    1
    44    47    42   ar
    45     8     2   ar
    46    15     9   ar
    47    36    37    1
    48    22    23    1
    49    26    27    1
@<TRIPOS>MOLECULE
*****
 47 49 0 0 0
SMALL
GASTEIGER

@<TRIPOS>ATOM
      1 C         141.0955  140.8768  165.7162 C.3     1  UNL1        0.0988
      2 C         140.1514  139.7115  165.7456 C.ar    1  UNL1       -0.0020
      3 C         138.8715  139.8026  166.5225 C.ar    1  UNL1       -0.0001
      4 C         137.9274  138.6374  166.5520 C.ar    1  UNL1        0.0294
      5 C         138.2633  137.3810  165.8046 C.ar    1  UNL1        0.1401
      6 F         137.3192  136.2156  165.8341 F       1  UNL1       -0.2042
      7 C         139.5432  137.2898  165.0277 C.ar    1  UNL1        0.0294
      8 C         140.4873  138.4550  164.9983 C.ar    1  UNL1       -0.0001
      9 C         141.1961  140.8331  167.2121 C.ar    1  UNL1        0.0000
     10 C         141.9855  139.7460  167.8793 C.ar    1  UNL1        0.0272
     11 C         142.0860  139.7024  169.3754 C.ar    1  UNL1        0.1398
     12 F         142.8754  138.6153  170.0426 F       1  UNL1       -0.2042
     13 C         141.3971  140.7457  170.2041 C.ar    1  UNL1        0.0335
     14 C         140.6077  141.8327  169.5369 C.ar    1  UNL1        0.0734
     15 C         140.5072  141.8765  168.0410 C.ar    1  UNL1        0.0016
     16 C         139.9189  142.8761  170.3657 C.3     1  UNL1        0.4186
     17 F         139.2300  143.9194  171.1945 F       1  UNL1       -0.1659
     18 F         141.0792  143.8046  170.1614 F       1  UNL1       -0.1659
     19 F         138.7586  141.9477  170.5701 F       1  UNL1       -0.1659
     20 C         140.0635  141.8929  163.5592 C.2     1  UNL1        0.2401
     21 O         139.5585  142.4473  163.8296 O.2     1  UNL1       -0.2736
     22 N         140.9950  140.9205  164.2202 N.am    1  UNL1       -0.2991
     23 H         141.5403  140.3109  163.6722 H       1  UNL1        0.1500
     24 C         139.9630  141.9366  162.0632 C.3     1  UNL1        0.1730
     25 C         139.9578  143.2563  161.3501 C.3     1  UNL1        0.2851
     26 O         138.4591  143.2221  161.2976 O.3     1  UNL1       -0.3715
     27 H         138.1392  142.4102  161.7210 H       1  UNL1        0.2109
     28 C         139.9526  144.5759  160.6370 C.3     1  UNL1        0.4292
     29 F         139.9474  145.8955  159.9239 F       1  UNL1       -0.1672
     30 F         139.2311  145.1990  161.7951 F       1  UNL1       -0.1672
     31 F         140.6681  144.1184  159.4006 F       1  UNL1       -0.1672
     32 C         141.4565  143.2906  161.4026 C.3     1  UNL1        0.4292
     33 F         142.9513  143.1809  161.3419 F       1  UNL1       -0.1672
     34 F         141.6981  142.1244  160.4907 F       1  UNL1       -0.1672
     35 F         141.7615  144.4431  162.3130 F       1  UNL1       -0.1672
     36 N         139.8676  140.6607  161.2803 N.3     1  UNL1       -0.2900
     37 H         139.5897  140.9167  160.3329 H       1  UNL1        0.1237
     38 C         137.6711  139.9246  162.4568 C.3     1  UNL1        0.0171
     39 C         138.9340  139.5748  161.7269 C.3     1  UNL1        0.0545
     40 C         139.1065  138.0980  161.5285 C.3     1  UNL1        0.0171
     41 C         142.0395  142.0420  165.6868 C.3     1  UNL1        0.0528
     42 C         143.3488  141.9285  164.9635 C.ar    1  UNL1       -0.0199
     43 C         144.0132  140.5914  164.8206 C.ar    1  UNL1       -0.0042
     44 C         145.3224  140.4779  164.0974 C.ar    1  UNL1       -0.0003
     45 C         145.9673  141.7017  163.5172 C.ar    1  UNL1       -0.0000
     46 C         145.3029  143.0388  163.6602 C.ar    1  UNL1       -0.0003
     47 C         143.9937  143.1523  164.3833 C.ar    1  UNL1       -0.0042
@<TRIPOS>BOND
     1    38    39    1
     2    39    40    1
     3    39    36    1
     4    36    24    1
     5    24    20    1
     6    20    21    2
     7    20    22   am
     8    22     1    1
     9     1    41    1
    10    41    42    1
    11    42    43   ar
    12    43    44   ar
    13    44    45   ar
    14    45    46   ar
    15    46    47   ar
    16     1     2    1
    17     2     3   ar
    18     3     4   ar
    19     4     5   ar
    20     5     6    1
    21     5     7   ar
    22     7     8   ar
    23     1     9    1
    24     9    10   ar
    25    10    11   ar
    26    11    12    1
    27    11    13   ar
    28    13    14   ar
    29    14    16    1
    30    16    17    1
    31    16    18    1
    32    16    19    1
    33    14    15   ar
    34    24    25    1
    35    25    26    1
    36    25    28    1
    37    28    29    1
    38    28    30    1
    39    28    31    1
    40    25    32    1
    41    32    33    1
    42    32    34    1
    43    32    35    1
    44    47    42   ar
    45     8     2   ar
    46    15     9   ar
    47    36    37    1
    48    22    23    1
    49    26    27    1
@<TRIPOS>MOLECULE
*****
 47 49 0 0 0
SMALL
GASTEIGER

@<TRIPOS>ATOM
      1 C         140.8420  141.1566  164.9919 C.3     1  UNL1        0.0988
      2 C         142.2881  141.3093  164.6234 C.ar    1  UNL1       -0.0020
      3 C         143.0004  142.6000  164.9006 C.ar    1  UNL1       -0.0001
      4 C         144.4463  142.7528  164.5321 C.ar    1  UNL1        0.0294
      5 C         145.1800  141.6149  163.8865 C.ar    1  UNL1        0.1401
      6 F         146.6260  141.7677  163.5179 F       1  UNL1       -0.2042
      7 C         144.4677  140.3242  163.6093 C.ar    1  UNL1        0.0294
      8 C         143.0217  140.1714  163.9777 C.ar    1  UNL1       -0.0001
      9 C         141.2135  141.1463  166.4451 C.ar    1  UNL1        0.0000
     10 C         141.8476  139.9282  167.0486 C.ar    1  UNL1        0.0272
     11 C         142.2191  139.9179  168.5019 C.ar    1  UNL1        0.1398
     12 F         142.8532  138.6998  169.1053 F       1  UNL1       -0.2042
     13 C         141.9565  141.1257  169.3516 C.ar    1  UNL1        0.0335
     14 C         141.3224  142.3438  168.7482 C.ar    1  UNL1        0.0734
     15 C         140.9509  142.3541  167.2950 C.ar    1  UNL1        0.0016
     16 C         141.0598  143.5517  169.5981 C.3     1  UNL1        0.4186
     17 F         140.7972  144.7595  170.4479 F       1  UNL1       -0.1659
     18 F         139.9409  143.9524  168.6828 F       1  UNL1       -0.1659
     19 F         142.1786  143.1509  170.5133 F       1  UNL1       -0.1659
     20 C         139.8133  142.3756  162.9411 C.2     1  UNL1        0.2401
     21 O         139.5896  143.0841  163.2301 O.2     1  UNL1       -0.2736
     22 N         140.4706  141.1668  163.5387 N.am    1  UNL1       -0.2991
     23 H         140.6581  140.3803  162.9771 H       1  UNL1        0.1500
     24 C         139.4418  142.3859  161.4879 C.3     1  UNL1        0.1730
     25 C         139.3169  141.0936  160.7366 C.3     1  UNL1        0.2851
     26 O         138.2356  140.6511  161.6774 O.3     1  UNL1       -0.3715
     27 H         138.0787  141.3436  162.3383 H       1  UNL1        0.2109
     28 C         139.1919  139.8014  159.9852 C.3     1  UNL1        0.4292
     29 F         139.0669  138.5092  159.2339 F       1  UNL1       -0.1672
     30 F         140.6141  139.4665  160.3246 F       1  UNL1       -0.1672
     31 F         137.7651  139.9763  159.5569 F       1  UNL1       -0.1672
     32 C         140.3981  141.5360  159.7958 C.3     1  UNL1        0.4292
     33 F         141.3508  141.9776  158.7246 F       1  UNL1       -0.1672
     34 F         139.5482  141.6097  158.5621 F       1  UNL1       -0.1672
     35 F         141.6196  141.6238  160.6621 F       1  UNL1       -0.1672
     36 N         139.1953  143.6884  160.7860 N.3     1  UNL1       -0.2900
     37 H         139.2457  143.4978  159.7853 H       1  UNL1        0.1237
     38 C         141.5445  144.7937  160.6869 C.3     1  UNL1        0.0171
     39 C         140.0904  144.8631  161.0487 C.3     1  UNL1        0.0545
     40 C         139.7010  146.1756  161.6615 C.3     1  UNL1        0.0171
     41 C         139.3961  141.0038  165.3605 C.3     1  UNL1        0.0528
     42 C         138.8490  139.6504  165.7057 C.ar    1  UNL1       -0.0199
     43 C         139.2096  138.4597  164.8679 C.ar    1  UNL1       -0.0042
     44 C         138.6625  137.1064  165.2132 C.ar    1  UNL1       -0.0003
     45 C         137.7549  136.9438  166.3963 C.ar    1  UNL1       -0.0000
     46 C         137.3943  138.1346  167.2341 C.ar    1  UNL1       -0.0003
     47 C         137.9414  139.4879  166.8889 C.ar    1  UNL1       -0.0042
@<TRIPOS>BOND
     1    38    39    1
     2    39    40    1
     3    39    36    1
     4    36    24    1
     5    24    20    1
     6    20    21    2
     7    20    22   am
     8    22     1    1
     9     1    41    1
    10    41    42    1
    11    42    43   ar
    12    43    44   ar
    13    44    45   ar
    14    45    46   ar
    15    46    47   ar
    16     1     2    1
    17     2     3   ar
    18     3     4   ar
    19     4     5   ar
    20     5     6    1
    21     5     7   ar
    22     7     8   ar
    23     1     9    1
    24     9    10   ar
    25    10    11   ar
    26    11    12    1
    27    11    13   ar
    28    13    14   ar
    29    14    16    1
    30    16    17    1
    31    16    18    1
    32    16    19    1
    33    14    15   ar
    34    24    25    1
    35    25    26    1
    36    25    28    1
    37    28    29    1
    38    28    30    1
    39    28    31    1
    40    25    32    1
    41    32    33    1
    42    32    34    1
    43    32    35    1
    44    47    42   ar
    45     8     2   ar
    46    15     9   ar
    47    36    37    1
    48    22    23    1
    49    26    27    1
