@<TRIPOS>MOLECULE
*****
 30 33 0 0 0
SMALL
GASTEIGER

@<TRIPOS>ATOM
      1 C         141.2700  145.8718  159.1858 C.3     1  UNL1        0.0897
      2 O         139.2064  146.4697  161.2796 O.2     1  UNL1       -0.2701
      3 C         140.3042  145.4888  161.5671 C.2     1  UNL1        0.2458
      4 N         141.3360  145.1899  160.5202 N.am    1  UNL1       -0.3009
      5 H         142.0565  144.5460  160.7089 H       1  UNL1        0.1497
      6 C         140.3702  144.8068  162.9015 C.ar    1  UNL1        0.0535
      7 C         139.1510  144.7446  163.7731 C.ar    1  UNL1        0.0061
      8 C         139.2169  144.0627  165.1074 C.ar    1  UNL1        0.0192
      9 C         140.5021  143.4428  165.5702 C.ar    1  UNL1        0.0813
     10 N         140.5681  142.7608  166.9046 N.ar    1  UNL1       -0.2438
     11 C         141.8532  142.1410  167.3673 C.ar    1  UNL1        0.0988
     12 C         143.0724  142.2032  166.4957 C.ar    1  UNL1        0.0207
     13 C         143.0065  142.8852  165.1614 C.ar    1  UNL1        0.0031
     14 C         141.7213  143.5050  164.6986 C.ar    1  UNL1        0.0178
     15 C         141.6553  144.1870  163.3642 C.ar    1  UNL1        0.0060
     16 C         141.7028  145.1425  157.9486 C.3     1  UNL1        0.0227
     17 C         141.4761  143.6644  157.8313 C.3     1  UNL1        0.0191
     18 C         140.1612  143.0722  158.2441 C.3     1  UNL1        0.0723
     19 N         140.0177  142.4311  159.5926 N.3     1  UNL1       -0.2698
     20 C         141.1971  141.7627  160.2346 C.3     1  UNL1        0.0938
     21 C         141.0537  141.1216  161.5830 C.3     1  UNL1        0.1081
     22 N         139.7308  141.1490  162.2895 N.pl3   1  UNL1       -0.3046
     23 C         138.5514  141.8175  161.6476 C.3     1  UNL1        0.1081
     24 C         138.6948  142.4586  160.2991 C.3     1  UNL1        0.0938
     25 C         139.5873  140.5079  163.6381 C.ar    1  UNL1        0.0479
     26 C         140.7768  139.8763  164.2987 C.ar    1  UNL1        0.0145
     27 C         140.6333  139.2353  165.6471 C.ar    1  UNL1        0.0013
     28 C         139.3004  139.2257  166.3351 C.ar    1  UNL1        0.0001
     29 C         138.1109  139.8573  165.6745 C.ar    1  UNL1        0.0013
     30 C         138.2544  140.4984  164.3260 C.ar    1  UNL1        0.0145
@<TRIPOS>BOND
     1     2     3    2
     2     3     4   am
     3     4     1    1
     4     1    16    1
     5    16    17    1
     6    17    18    1
     7    18    19    1
     8    19    20    1
     9    20    21    1
    10    21    22    1
    11    22    25    1
    12    25    26   ar
    13    26    27   ar
    14    27    28   ar
    15    28    29   ar
    16    29    30   ar
    17    22    23    1
    18    23    24    1
    19     3     6    1
    20     6     7   ar
    21     7     8   ar
    22     8     9   ar
    23     9    10   ar
    24    10    11   ar
    25    11    12   ar
    26    12    13   ar
    27    13    14   ar
    28    14    15   ar
    29    24    19    1
    30    15     6   ar
    31    30    25   ar
    32    14     9   ar
    33     4     5    1
@<TRIPOS>MOLECULE
*****
 30 33 0 0 0
SMALL
GASTEIGER

@<TRIPOS>ATOM
      1 C         140.2133  145.6975  160.6480 C.3     1  UNL1        0.0897
      2 O         138.1542  143.6833  161.4864 O.2     1  UNL1       -0.2701
      3 C         139.3451  143.9464  162.3596 C.2     1  UNL1        0.2458
      4 N         140.3746  144.9535  161.9404 N.am    1  UNL1       -0.3009
      5 H         141.1563  145.1261  162.5136 H       1  UNL1        0.1497
      6 C         139.5064  143.2023  163.6521 C.ar    1  UNL1        0.0535
      7 C         140.3993  143.7495  164.7260 C.ar    1  UNL1        0.0061
      8 C         140.5607  143.0055  166.0185 C.ar    1  UNL1        0.0192
      9 C         139.8291  141.7143  166.2370 C.ar    1  UNL1        0.0813
     10 N         139.9905  140.9704  167.5295 N.ar    1  UNL1       -0.2438
     11 C         139.2590  139.6792  167.7480 C.ar    1  UNL1        0.0988
     12 C         138.3661  139.1320  166.6740 C.ar    1  UNL1        0.0207
     13 C         138.2047  139.8760  165.3816 C.ar    1  UNL1        0.0031
     14 C         138.9362  141.1671  165.1631 C.ar    1  UNL1        0.0178
     15 C         138.7749  141.9112  163.8706 C.ar    1  UNL1        0.0060
     16 C         140.2331  144.9525  159.3462 C.3     1  UNL1        0.0227
     17 C         141.4755  144.9440  158.5058 C.3     1  UNL1        0.0191
     18 C         142.4891  143.8516  158.6767 C.3     1  UNL1        0.0723
     19 N         142.4627  142.9891  159.9038 N.3     1  UNL1       -0.2698
     20 C         141.6160  141.7513  159.9323 C.3     1  UNL1        0.0938
     21 C         141.5895  140.8889  161.1593 C.3     1  UNL1        0.1081
     22 N         142.4097  141.2644  162.3577 N.pl3   1  UNL1       -0.3046
     23 C         143.2563  142.5023  162.3292 C.3     1  UNL1        0.1081
     24 C         143.2828  143.3646  161.1022 C.3     1  UNL1        0.0938
     25 C         142.3832  140.4020  163.5848 C.ar    1  UNL1        0.0479
     26 C         143.1769  140.7955  164.7953 C.ar    1  UNL1        0.0145
     27 C         143.1505  139.9331  166.0223 C.ar    1  UNL1        0.0013
     28 C         142.3304  138.6772  166.0389 C.ar    1  UNL1        0.0001
     29 C         141.5367  138.2837  164.8284 C.ar    1  UNL1        0.0013
     30 C         141.5631  139.1461  163.6014 C.ar    1  UNL1        0.0145
@<TRIPOS>BOND
     1     2     3    2
     2     3     4   am
     3     4     1    1
     4     1    16    1
     5    16    17    1
     6    17    18    1
     7    18    19    1
     8    19    20    1
     9    20    21    1
    10    21    22    1
    11    22    25    1
    12    25    26   ar
    13    26    27   ar
    14    27    28   ar
    15    28    29   ar
    16    29    30   ar
    17    22    23    1
    18    23    24    1
    19     3     6    1
    20     6     7   ar
    21     7     8   ar
    22     8     9   ar
    23     9    10   ar
    24    10    11   ar
    25    11    12   ar
    26    12    13   ar
    27    13    14   ar
    28    14    15   ar
    29    24    19    1
    30    15     6   ar
    31    30    25   ar
    32    14     9   ar
    33     4     5    1
@<TRIPOS>MOLECULE
*****
 30 33 0 0 0
SMALL
GASTEIGER

@<TRIPOS>ATOM
      1 C         141.1622  145.7244  158.9165 C.3     1  UNL1        0.0897
      2 O         139.5407  145.0820  161.3574 O.2     1  UNL1       -0.2701
      3 C         141.0298  144.9030  161.3777 C.2     1  UNL1        0.2458
      4 N         141.8405  145.2242  160.1572 N.am    1  UNL1       -0.3009
      5 H         142.8179  145.1067  160.1706 H       1  UNL1        0.1497
      6 C         141.7083  144.4027  162.6185 C.ar    1  UNL1        0.0535
      7 C         143.1562  144.7124  162.8583 C.ar    1  UNL1        0.0061
      8 C         143.8347  144.2122  164.0990 C.ar    1  UNL1        0.0192
      9 C         143.0652  143.4023  165.1000 C.ar    1  UNL1        0.0813
     10 N         143.7436  142.9021  166.3407 N.ar    1  UNL1       -0.2438
     11 C         142.9741  142.0921  167.3416 C.ar    1  UNL1        0.0988
     12 C         141.5262  141.7824  167.1018 C.ar    1  UNL1        0.0207
     13 C         140.8477  142.2826  165.8611 C.ar    1  UNL1        0.0031
     14 C         141.6172  143.0925  164.8602 C.ar    1  UNL1        0.0178
     15 C         140.9388  143.5928  163.6194 C.ar    1  UNL1        0.0060
     16 C         141.9209  145.7980  157.6246 C.3     1  UNL1        0.0227
     17 C         141.7344  144.7342  156.5836 C.3     1  UNL1        0.0191
     18 C         142.5031  143.4496  156.6779 C.3     1  UNL1        0.0723
     19 N         142.7532  142.8218  158.0170 N.3     1  UNL1       -0.2698
     20 C         141.6635  142.0475  158.6976 C.3     1  UNL1        0.0938
     21 C         141.9135  141.4197  160.0367 C.3     1  UNL1        0.1081
     22 N         143.2532  141.5661  160.6953 N.pl3   1  UNL1       -0.3046
     23 C         144.3429  142.3403  160.0147 C.3     1  UNL1        0.1081
     24 C         144.0929  142.9682  158.6756 C.3     1  UNL1        0.0938
     25 C         143.5033  140.9382  162.0344 C.ar    1  UNL1        0.0479
     26 C         142.3932  140.2241  162.7470 C.ar    1  UNL1        0.0145
     27 C         142.6433  139.5963  164.0861 C.ar    1  UNL1        0.0013
     28 C         144.0034  139.6825  164.7127 C.ar    1  UNL1        0.0001
     29 C         145.1135  140.3966  164.0001 C.ar    1  UNL1        0.0013
     30 C         144.8634  141.0245  162.6610 C.ar    1  UNL1        0.0145
@<TRIPOS>BOND
     1     2     3    2
     2     3     4   am
     3     4     1    1
     4     1    16    1
     5    16    17    1
     6    17    18    1
     7    18    19    1
     8    19    20    1
     9    20    21    1
    10    21    22    1
    11    22    25    1
    12    25    26   ar
    13    26    27   ar
    14    27    28   ar
    15    28    29   ar
    16    29    30   ar
    17    22    23    1
    18    23    24    1
    19     3     6    1
    20     6     7   ar
    21     7     8   ar
    22     8     9   ar
    23     9    10   ar
    24    10    11   ar
    25    11    12   ar
    26    12    13   ar
    27    13    14   ar
    28    14    15   ar
    29    24    19    1
    30    15     6   ar
    31    30    25   ar
    32    14     9   ar
    33     4     5    1
@<TRIPOS>MOLECULE
*****
 30 33 0 0 0
SMALL
GASTEIGER

@<TRIPOS>ATOM
      1 C         144.6067  141.5915  161.6479 C.3     1  UNL1        0.0897
      2 O         145.2373  142.4945  164.4384 O.2     1  UNL1       -0.2701
      3 C         144.0722  141.5830  164.1904 C.2     1  UNL1        0.2458
      4 N         143.7569  141.1315  162.7951 N.am    1  UNL1       -0.3009
      5 H         142.9921  140.5333  162.6324 H       1  UNL1        0.1497
      6 C         143.2223  141.1229  165.3376 C.ar    1  UNL1        0.0535
      7 C         143.0494  139.6566  165.6022 C.ar    1  UNL1        0.0061
      8 C         142.1996  139.1965  166.7493 C.ar    1  UNL1        0.0192
      9 C         141.5225  140.2028  167.6320 C.ar    1  UNL1        0.0813
     10 N         140.6727  139.7427  168.7792 N.ar    1  UNL1       -0.2438
     11 C         139.9957  140.7489  169.6619 C.ar    1  UNL1        0.0988
     12 C         140.1685  142.2153  169.3973 C.ar    1  UNL1        0.0207
     13 C         141.0184  142.6754  168.2502 C.ar    1  UNL1        0.0031
     14 C         141.6954  141.6691  167.3675 C.ar    1  UNL1        0.0178
     15 C         142.5453  142.1292  166.2203 C.ar    1  UNL1        0.0060
     16 C         144.3022  142.8907  160.9627 C.3     1  UNL1        0.0227
     17 C         143.4363  142.9078  159.7381 C.3     1  UNL1        0.0191
     18 C         141.9427  142.8972  159.8754 C.3     1  UNL1        0.0723
     19 N         141.2958  142.1011  160.9699 N.3     1  UNL1       -0.2698
     20 C         141.1210  140.6192  160.8166 C.3     1  UNL1        0.0938
     21 C         140.4742  139.8231  161.9110 C.3     1  UNL1        0.1081
     22 N         140.0020  140.5089  163.1587 N.pl3   1  UNL1       -0.3046
     23 C         140.1768  141.9908  163.3120 C.3     1  UNL1        0.1081
     24 C         140.8236  142.7869  162.2176 C.3     1  UNL1        0.0938
     25 C         139.3551  139.7128  164.2531 C.ar    1  UNL1        0.0479
     26 C         139.4071  138.2140  164.2216 C.ar    1  UNL1        0.0145
     27 C         138.7602  137.4179  165.3159 C.ar    1  UNL1        0.0013
     28 C         138.0614  138.1206  166.4420 C.ar    1  UNL1        0.0001
     29 C         138.0094  139.6193  166.4736 C.ar    1  UNL1        0.0013
     30 C         138.6563  140.4155  165.3791 C.ar    1  UNL1        0.0145
@<TRIPOS>BOND
     1     2     3    2
     2     3     4   am
     3     4     1    1
     4     1    16    1
     5    16    17    1
     6    17    18    1
     7    18    19    1
     8    19    20    1
     9    20    21    1
    10    21    22    1
    11    22    25    1
    12    25    26   ar
    13    26    27   ar
    14    27    28   ar
    15    28    29   ar
    16    29    30   ar
    17    22    23    1
    18    23    24    1
    19     3     6    1
    20     6     7   ar
    21     7     8   ar
    22     8     9   ar
    23     9    10   ar
    24    10    11   ar
    25    11    12   ar
    26    12    13   ar
    27    13    14   ar
    28    14    15   ar
    29    24    19    1
    30    15     6   ar
    31    30    25   ar
    32    14     9   ar
    33     4     5    1
@<TRIPOS>MOLECULE
*****
 30 33 0 0 0
SMALL
GASTEIGER

@<TRIPOS>ATOM
      1 C         140.7151  145.4896  161.0946 C.3     1  UNL1        0.0897
      2 O         143.3237  144.5540  162.2435 O.2     1  UNL1       -0.2701
      3 C         142.0326  143.9859  162.7537 C.2     1  UNL1        0.2458
      4 N         140.7284  144.4537  162.1792 N.am    1  UNL1       -0.3009
      5 H         139.8810  144.0808  162.5141 H       1  UNL1        0.1497
      6 C         142.0458  142.9498  163.8384 C.ar    1  UNL1        0.0535
      7 C         142.9449  141.7547  163.7232 C.ar    1  UNL1        0.0061
      8 C         142.9581  140.7187  164.8078 C.ar    1  UNL1        0.0192
      9 C         142.0722  140.8778  166.0078 C.ar    1  UNL1        0.0813
     10 N         142.0854  139.8419  167.0925 N.ar    1  UNL1       -0.2438
     11 C         141.1995  140.0010  168.2924 C.ar    1  UNL1        0.0988
     12 C         140.3005  141.1962  168.4077 C.ar    1  UNL1        0.0207
     13 C         140.2873  142.2322  167.3230 C.ar    1  UNL1        0.0031
     14 C         141.1731  142.0730  166.1231 C.ar    1  UNL1        0.0178
     15 C         141.1599  143.1090  165.0384 C.ar    1  UNL1        0.0060
     16 C         141.1604  145.1297  159.7082 C.3     1  UNL1        0.0227
     17 C         140.1437  144.8005  158.6556 C.3     1  UNL1        0.0191
     18 C         139.5877  143.4107  158.5586 C.3     1  UNL1        0.0723
     19 N         139.4836  142.5570  159.7876 N.3     1  UNL1       -0.2698
     20 C         138.2949  142.6876  160.6931 C.3     1  UNL1        0.0938
     21 C         138.1908  141.8340  161.9220 C.3     1  UNL1        0.1081
     22 N         139.2755  140.8497  162.2455 N.pl3   1  UNL1       -0.3046
     23 C         140.4642  140.7191  161.3400 C.3     1  UNL1        0.1081
     24 C         140.5682  141.5727  160.1111 C.3     1  UNL1        0.0938
     25 C         139.1714  139.9960  163.4746 C.ar    1  UNL1        0.0479
     26 C         140.0044  138.7547  163.5982 C.ar    1  UNL1        0.0145
     27 C         139.9004  137.9010  164.8271 C.ar    1  UNL1        0.0013
     28 C         138.9634  138.2886  165.9325 C.ar    1  UNL1        0.0001
     29 C         138.1304  139.5299  165.8089 C.ar    1  UNL1        0.0013
     30 C         138.2344  140.3836  164.5799 C.ar    1  UNL1        0.0145
@<TRIPOS>BOND
     1     2     3    2
     2     3     4   am
     3     4     1    1
     4     1    16    1
     5    16    17    1
     6    17    18    1
     7    18    19    1
     8    19    20    1
     9    20    21    1
    10    21    22    1
    11    22    25    1
    12    25    26   ar
    13    26    27   ar
    14    27    28   ar
    15    28    29   ar
    16    29    30   ar
    17    22    23    1
    18    23    24    1
    19     3     6    1
    20     6     7   ar
    21     7     8   ar
    22     8     9   ar
    23     9    10   ar
    24    10    11   ar
    25    11    12   ar
    26    12    13   ar
    27    13    14   ar
    28    14    15   ar
    29    24    19    1
    30    15     6   ar
    31    30    25   ar
    32    14     9   ar
    33     4     5    1
@<TRIPOS>MOLECULE
*****
 30 33 0 0 0
SMALL
GASTEIGER

@<TRIPOS>ATOM
      1 C         140.5098  145.5088  161.1759 C.3     1  UNL1        0.0897
      2 O         142.1138  145.5094  163.7111 O.2     1  UNL1       -0.2701
      3 C         141.0794  144.4483  163.4783 C.2     1  UNL1        0.2458
      4 N         140.2774  144.4480  162.2107 N.am    1  UNL1       -0.3009
      5 H         139.5986  143.7516  162.0579 H       1  UNL1        0.1497
      6 C         140.8471  143.3875  164.5130 C.ar    1  UNL1        0.0535
      7 C         139.5333  142.6655  164.5650 C.ar    1  UNL1        0.0061
      8 C         139.3009  141.6047  165.5997 C.ar    1  UNL1        0.0192
      9 C         140.3823  141.2659  166.5825 C.ar    1  UNL1        0.0813
     10 N         140.1498  140.2051  167.6172 N.ar    1  UNL1       -0.2438
     11 C         141.2312  139.8663  168.6000 C.ar    1  UNL1        0.0988
     12 C         142.5450  140.5883  168.5480 C.ar    1  UNL1        0.0207
     13 C         142.7774  141.6491  167.5133 C.ar    1  UNL1        0.0031
     14 C         141.6960  141.9879  166.5306 C.ar    1  UNL1        0.0178
     15 C         141.9284  143.0487  165.4958 C.ar    1  UNL1        0.0060
     16 C         140.2992  145.1987  159.7235 C.3     1  UNL1        0.0227
     17 C         141.4724  145.1447  158.7904 C.3     1  UNL1        0.0191
     18 C         142.2817  143.8871  158.6749 C.3     1  UNL1        0.0723
     19 N         142.3686  142.9419  159.8365 N.3     1  UNL1       -0.2698
     20 C         141.3700  141.8313  159.9760 C.3     1  UNL1        0.0938
     21 C         141.4569  140.8861  161.1375 C.3     1  UNL1        0.1081
     22 N         142.5423  141.0515  162.1594 N.pl3   1  UNL1       -0.3046
     23 C         143.5409  142.1620  162.0199 C.3     1  UNL1        0.1081
     24 C         143.4541  143.1072  160.8584 C.3     1  UNL1        0.0938
     25 C         142.6292  140.1063  163.3209 C.ar    1  UNL1        0.0479
     26 C         141.4581  139.2361  163.6690 C.ar    1  UNL1        0.0145
     27 C         141.5449  138.2909  164.8304 C.ar    1  UNL1        0.0013
     28 C         142.8030  138.2159  165.6439 C.ar    1  UNL1        0.0001
     29 C         143.9742  139.0861  165.2959 C.ar    1  UNL1        0.0013
     30 C         143.8873  140.0313  164.1344 C.ar    1  UNL1        0.0145
@<TRIPOS>BOND
     1     2     3    2
     2     3     4   am
     3     4     1    1
     4     1    16    1
     5    16    17    1
     6    17    18    1
     7    18    19    1
     8    19    20    1
     9    20    21    1
    10    21    22    1
    11    22    25    1
    12    25    26   ar
    13    26    27   ar
    14    27    28   ar
    15    28    29   ar
    16    29    30   ar
    17    22    23    1
    18    23    24    1
    19     3     6    1
    20     6     7   ar
    21     7     8   ar
    22     8     9   ar
    23     9    10   ar
    24    10    11   ar
    25    11    12   ar
    26    12    13   ar
    27    13    14   ar
    28    14    15   ar
    29    24    19    1
    30    15     6   ar
    31    30    25   ar
    32    14     9   ar
    33     4     5    1
@<TRIPOS>MOLECULE
*****
 30 33 0 0 0
SMALL
GASTEIGER

@<TRIPOS>ATOM
      1 C         138.9326  143.0339  158.2224 C.3     1  UNL1        0.0897
      2 O         137.9097  143.3143  161.0287 O.2     1  UNL1       -0.2701
      3 C         138.5202  142.0202  160.5787 C.2     1  UNL1        0.2458
      4 N         139.0316  141.8800  159.1756 N.am    1  UNL1       -0.3009
      5 H         139.4324  141.0306  158.8803 H       1  UNL1        0.1497
      6 C         138.6193  140.8662  161.5320 C.ar    1  UNL1        0.0535
      7 C         139.0648  139.5217  161.0381 C.ar    1  UNL1        0.0061
      8 C         139.1638  138.3677  161.9913 C.ar    1  UNL1        0.0192
      9 C         138.8174  138.5582  163.4383 C.ar    1  UNL1        0.0813
     10 N         138.9165  137.4042  164.3914 N.ar    1  UNL1       -0.2438
     11 C         138.5701  137.5947  165.8383 C.ar    1  UNL1        0.0988
     12 C         138.1246  138.9392  166.3321 C.ar    1  UNL1        0.0207
     13 C         138.0255  140.0932  165.3790 C.ar    1  UNL1        0.0031
     14 C         138.3719  139.9027  163.9321 C.ar    1  UNL1        0.0178
     15 C         138.2728  141.0567  162.9789 C.ar    1  UNL1        0.0060
     16 C         140.0685  144.0059  158.1009 C.3     1  UNL1        0.0227
     17 C         140.2564  145.0734  159.1378 C.3     1  UNL1        0.0191
     18 C         141.4532  145.0391  160.0413 C.3     1  UNL1        0.0723
     19 N         141.4008  144.2673  161.3265 N.3     1  UNL1       -0.2698
     20 C         140.8113  144.8950  162.5547 C.3     1  UNL1        0.0938
     21 C         140.7589  144.1233  163.8399 C.3     1  UNL1        0.1081
     22 N         141.2959  142.7240  163.8968 N.pl3   1  UNL1       -0.3046
     23 C         141.8854  142.0963  162.6686 C.3     1  UNL1        0.1081
     24 C         141.9378  142.8680  161.3834 C.3     1  UNL1        0.0938
     25 C         141.2435  141.9522  165.1820 C.ar    1  UNL1        0.0479
     26 C         141.8109  140.5652  165.2476 C.ar    1  UNL1        0.0145
     27 C         141.7585  139.7934  166.5328 C.ar    1  UNL1        0.0013
     28 C         141.1387  140.4086  167.7524 C.ar    1  UNL1        0.0001
     29 C         140.5713  141.7956  167.6868 C.ar    1  UNL1        0.0013
     30 C         140.6237  142.5674  166.4016 C.ar    1  UNL1        0.0145
@<TRIPOS>BOND
     1     2     3    2
     2     3     4   am
     3     4     1    1
     4     1    16    1
     5    16    17    1
     6    17    18    1
     7    18    19    1
     8    19    20    1
     9    20    21    1
    10    21    22    1
    11    22    25    1
    12    25    26   ar
    13    26    27   ar
    14    27    28   ar
    15    28    29   ar
    16    29    30   ar
    17    22    23    1
    18    23    24    1
    19     3     6    1
    20     6     7   ar
    21     7     8   ar
    22     8     9   ar
    23     9    10   ar
    24    10    11   ar
    25    11    12   ar
    26    12    13   ar
    27    13    14   ar
    28    14    15   ar
    29    24    19    1
    30    15     6   ar
    31    30    25   ar
    32    14     9   ar
    33     4     5    1
@<TRIPOS>MOLECULE
*****
 30 33 0 0 0
SMALL
GASTEIGER

@<TRIPOS>ATOM
      1 C         141.0304  142.3772  158.5989 C.3     1  UNL1        0.0897
      2 O         139.0629  143.7319  160.4137 O.2     1  UNL1       -0.2701
      3 C         139.6186  142.3876  160.7799 C.2     1  UNL1        0.2458
      4 N         140.6024  141.7103  159.8725 N.am    1  UNL1       -0.3009
      5 H         140.9671  140.8280  160.1128 H       1  UNL1        0.1497
      6 C         139.1906  141.7207  162.0535 C.ar    1  UNL1        0.0535
      7 C         138.4178  142.4928  163.0815 C.ar    1  UNL1        0.0061
      8 C         137.9898  141.8259  164.3550 C.ar    1  UNL1        0.0192
      9 C         138.3345  140.3868  164.6007 C.ar    1  UNL1        0.0813
     10 N         137.9065  139.7199  165.8742 N.ar    1  UNL1       -0.2438
     11 C         138.2512  138.2809  166.1198 C.ar    1  UNL1        0.0988
     12 C         139.0240  137.5088  165.0919 C.ar    1  UNL1        0.0207
     13 C         139.4520  138.1757  163.8183 C.ar    1  UNL1        0.0031
     14 C         139.1073  139.6147  163.5727 C.ar    1  UNL1        0.0178
     15 C         139.5353  140.2816  162.2991 C.ar    1  UNL1        0.0060
     16 C         142.3652  142.0547  157.9953 C.3     1  UNL1        0.0227
     17 C         143.5626  142.8934  158.3313 C.3     1  UNL1        0.0191
     18 C         144.4195  142.5391  159.5104 C.3     1  UNL1        0.0723
     19 N         143.7930  142.3315  160.8575 N.3     1  UNL1       -0.2698
     20 C         143.1691  143.4880  161.5807 C.3     1  UNL1        0.0938
     21 C         142.5427  143.2805  162.9277 C.3     1  UNL1        0.1081
     22 N         142.5402  141.9164  163.5515 N.pl3   1  UNL1       -0.3046
     23 C         143.1641  140.7598  162.8282 C.3     1  UNL1        0.1081
     24 C         143.7905  140.9674  161.4812 C.3     1  UNL1        0.0938
     25 C         141.9137  141.7088  164.8985 C.ar    1  UNL1        0.0479
     26 C         141.1853  142.8359  165.5687 C.ar    1  UNL1        0.0145
     27 C         140.5589  142.6283  166.9157 C.ar    1  UNL1        0.0013
     28 C         140.6608  141.2936  167.5926 C.ar    1  UNL1        0.0001
     29 C         141.3892  140.1665  166.9225 C.ar    1  UNL1        0.0013
     30 C         142.0156  140.3741  165.5754 C.ar    1  UNL1        0.0145
@<TRIPOS>BOND
     1     2     3    2
     2     3     4   am
     3     4     1    1
     4     1    16    1
     5    16    17    1
     6    17    18    1
     7    18    19    1
     8    19    20    1
     9    20    21    1
    10    21    22    1
    11    22    25    1
    12    25    26   ar
    13    26    27   ar
    14    27    28   ar
    15    28    29   ar
    16    29    30   ar
    17    22    23    1
    18    23    24    1
    19     3     6    1
    20     6     7   ar
    21     7     8   ar
    22     8     9   ar
    23     9    10   ar
    24    10    11   ar
    25    11    12   ar
    26    12    13   ar
    27    13    14   ar
    28    14    15   ar
    29    24    19    1
    30    15     6   ar
    31    30    25   ar
    32    14     9   ar
    33     4     5    1
@<TRIPOS>MOLECULE
*****
 30 33 0 0 0
SMALL
GASTEIGER

@<TRIPOS>ATOM
      1 C         139.0583  143.2755  158.0540 C.3     1  UNL1        0.0897
      2 O         139.0146  140.3871  158.8636 O.2     1  UNL1       -0.2701
      3 C         138.8102  141.4580  159.8939 C.2     1  UNL1        0.2458
      4 N         138.8321  142.9022  159.4890 N.am    1  UNL1       -0.3009
      5 H         138.6979  143.6050  160.1652 H       1  UNL1        0.1497
      6 C         138.5840  141.0847  161.3290 C.ar    1  UNL1        0.0535
      7 C         137.9758  142.0772  162.2752 C.ar    1  UNL1        0.0061
      8 C         137.7496  141.7039  163.7102 C.ar    1  UNL1        0.0192
      9 C         138.1315  140.3382  164.1992 C.ar    1  UNL1        0.0813
     10 N         137.9052  139.9650  165.6343 N.ar    1  UNL1       -0.2438
     11 C         138.2871  138.5993  166.1232 C.ar    1  UNL1        0.0988
     12 C         138.8953  137.6069  165.1770 C.ar    1  UNL1        0.0207
     13 C         139.1215  137.9801  163.7419 C.ar    1  UNL1        0.0031
     14 C         138.7396  139.3458  163.2530 C.ar    1  UNL1        0.0178
     15 C         138.9659  139.7191  161.8179 C.ar    1  UNL1        0.0060
     16 C         139.7646  144.5544  157.7141 C.3     1  UNL1        0.0227
     17 C         140.2642  145.4493  158.8093 C.3     1  UNL1        0.0191
     18 C         141.5235  145.1015  159.5463 C.3     1  UNL1        0.0723
     19 N         141.4506  144.3542  160.8449 N.3     1  UNL1       -0.2698
     20 C         142.0679  142.9922  160.9621 C.3     1  UNL1        0.0938
     21 C         141.9950  142.2449  162.2607 C.3     1  UNL1        0.1081
     22 N         141.3047  142.8598  163.4420 N.pl3   1  UNL1       -0.3046
     23 C         140.6874  144.2218  163.3248 C.3     1  UNL1        0.1081
     24 C         140.7604  144.9690  162.0262 C.3     1  UNL1        0.0938
     25 C         141.2318  142.1125  164.7406 C.ar    1  UNL1        0.0479
     26 C         140.5715  142.7414  165.9317 C.ar    1  UNL1        0.0145
     27 C         140.4985  141.9942  167.2303 C.ar    1  UNL1        0.0013
     28 C         141.0859  140.6181  167.3379 C.ar    1  UNL1        0.0001
     29 C         141.7462  139.9893  166.1468 C.ar    1  UNL1        0.0013
     30 C         141.8191  140.7365  164.8482 C.ar    1  UNL1        0.0145
@<TRIPOS>BOND
     1     2     3    2
     2     3     4   am
     3     4     1    1
     4     1    16    1
     5    16    17    1
     6    17    18    1
     7    18    19    1
     8    19    20    1
     9    20    21    1
    10    21    22    1
    11    22    25    1
    12    25    26   ar
    13    26    27   ar
    14    27    28   ar
    15    28    29   ar
    16    29    30   ar
    17    22    23    1
    18    23    24    1
    19     3     6    1
    20     6     7   ar
    21     7     8   ar
    22     8     9   ar
    23     9    10   ar
    24    10    11   ar
    25    11    12   ar
    26    12    13   ar
    27    13    14   ar
    28    14    15   ar
    29    24    19    1
    30    15     6   ar
    31    30    25   ar
    32    14     9   ar
    33     4     5    1
