@<TRIPOS>MOLECULE
*****
 28 30 0 0 0
SMALL
GASTEIGER

@<TRIPOS>ATOM
      1 N         144.6424  143.6008  170.5154 N.ar    1  UNL1       -0.1495
      2 N         143.4691  144.1845  171.2454 N.ar    1  UNL1       -0.0450
      3 N         142.2291  143.4994  170.7526 N.ar    1  UNL1       -0.1077
      4 C         142.6359  142.4923  169.7180 C.ar    1  UNL1        0.2058
      5 N         144.1273  142.5550  169.5714 N.ar    1  UNL1       -0.1297
      6 C         141.7131  141.5823  168.9627 C.ar    1  UNL1        0.0395
      7 C         140.3741  141.2267  169.5375 C.ar    1  UNL1        0.0063
      8 C         139.4514  140.3167  168.7822 C.ar    1  UNL1        0.0376
      9 C         139.8677  139.7624  167.4520 C.ar    1  UNL1        0.1453
     10 C         141.2068  140.1180  166.8772 C.ar    1  UNL1        0.0376
     11 C         142.1294  141.0280  167.6325 C.ar    1  UNL1        0.0063
     12 O         138.9450  138.8524  166.6967 O.3     1  UNL1       -0.4535
     13 C         138.6255  139.1339  165.2584 C.ar    1  UNL1        0.1454
     14 C         138.8591  138.0791  164.2179 C.ar    1  UNL1        0.0384
     15 C         138.5396  138.3606  162.7796 C.ar    1  UNL1        0.0145
     16 C         137.9864  139.6969  162.3818 C.ar    1  UNL1        0.0579
     17 CL        137.6669  139.9784  160.9436 Cl      1  UNL1       -0.0822
     18 C         137.7528  140.7518  163.4224 C.ar    1  UNL1        0.0145
     19 C         138.0723  140.4703  164.8607 C.ar    1  UNL1        0.0384
     20 C         146.0785  143.9939  170.6974 C.3     1  UNL1        0.1670
     21 N         145.6622  146.4262  171.5100 N.3     1  UNL1       -0.3202
     22 C         146.4337  145.1426  171.5941 C.3     1  UNL1        0.0831
     23 H         146.0359  147.0925  172.1859 H       1  UNL1        0.1189
     24 H         144.6797  146.2466  171.7172 H       1  UNL1        0.1189
     25 C         147.5606  145.0078  172.5749 C.3     1  UNL1        0.0593
     26 C         148.0572  146.2130  173.3171 C.2     1  UNL1        0.0517
     27 O         149.5244  146.3792  173.5812 O.co2   1  UNL1       -0.5491
     28 O         147.0868  147.2521  173.7949 O.co2   1  UNL1       -0.5491
@<TRIPOS>UNITY_ATOM_ATTR
27 1
charge -1
@<TRIPOS>BOND
     1    22    21    1
     2    22    25    1
     3    25    26    1
     4    26    27   ar
     5    26    28   ar
     6    22    20    1
     7    20     1    1
     8     1     2   ar
     9     2     3   ar
    10     3     4   ar
    11     4     6    1
    12     6     7   ar
    13     7     8   ar
    14     8     9   ar
    15     9    12    1
    16    12    13    1
    17    13    14   ar
    18    14    15   ar
    19    15    16   ar
    20    16    17    1
    21    16    18   ar
    22    18    19   ar
    23     9    10   ar
    24    10    11   ar
    25     4     5   ar
    26     5     1   ar
    27    11     6   ar
    28    19    13   ar
    29    21    23    1
    30    21    24    1
@<TRIPOS>MOLECULE
*****
 28 30 0 0 0
SMALL
GASTEIGER

@<TRIPOS>ATOM
      1 N         139.4651  140.2611  169.3566 N.ar    1  UNL1       -0.1495
      2 N         138.1957  139.4905  169.5686 N.ar    1  UNL1       -0.0450
      3 N         137.7451  138.9646  168.2380 N.ar    1  UNL1       -0.1077
      4 C         138.7360  139.4101  167.2038 C.ar    1  UNL1        0.2058
      5 N         139.7990  140.2114  167.8951 N.ar    1  UNL1       -0.1297
      6 C         138.6746  139.1075  165.7359 C.ar    1  UNL1        0.0395
      7 C         139.0195  137.7352  165.2380 C.ar    1  UNL1        0.0063
      8 C         138.9581  137.4326  163.7701 C.ar    1  UNL1        0.0376
      9 C         138.5519  138.5023  162.8002 C.ar    1  UNL1        0.1453
     10 C         138.2070  139.8745  163.2981 C.ar    1  UNL1        0.0376
     11 C         138.2684  140.1771  164.7659 C.ar    1  UNL1        0.0063
     12 O         138.4905  138.1996  161.3323 O.3     1  UNL1       -0.4535
     13 C         139.6696  138.4991  160.4548 C.ar    1  UNL1        0.1454
     14 C         139.4565  139.0039  159.0585 C.ar    1  UNL1        0.0384
     15 C         140.6357  139.3033  158.1810 C.ar    1  UNL1        0.0145
     16 C         142.0280  139.0980  158.6999 C.ar    1  UNL1        0.0579
     17 CL        143.2071  139.3974  157.8225 Cl      1  UNL1       -0.0822
     18 C         142.2411  138.5932  160.0962 C.ar    1  UNL1        0.0145
     19 C         141.0620  138.2937  160.9737 C.ar    1  UNL1        0.0384
     20 C         140.2608  140.9589  170.4196 C.3     1  UNL1        0.1670
     21 N         139.2749  143.2483  171.1521 N.3     1  UNL1       -0.3202
     22 C         140.3324  142.4570  170.4410 C.3     1  UNL1        0.0831
     23 H         139.4795  144.2438  171.0659 H       1  UNL1        0.1189
     24 H         139.2611  142.9881  172.1383 H       1  UNL1        0.1189
     25 C         141.4613  143.1639  169.7513 C.3     1  UNL1        0.0593
     26 C         142.8668  142.9947  170.2473 C.2     1  UNL1        0.0517
     27 O         143.6609  141.7849  169.8524 O.co2   1  UNL1       -0.5491
     28 O         143.4781  144.0351  171.1380 O.co2   1  UNL1       -0.5491
@<TRIPOS>UNITY_ATOM_ATTR
27 1
charge -1
@<TRIPOS>BOND
     1    22    21    1
     2    22    25    1
     3    25    26    1
     4    26    27   ar
     5    26    28   ar
     6    22    20    1
     7    20     1    1
     8     1     2   ar
     9     2     3   ar
    10     3     4   ar
    11     4     6    1
    12     6     7   ar
    13     7     8   ar
    14     8     9   ar
    15     9    12    1
    16    12    13    1
    17    13    14   ar
    18    14    15   ar
    19    15    16   ar
    20    16    17    1
    21    16    18   ar
    22    18    19   ar
    23     9    10   ar
    24    10    11   ar
    25     4     5   ar
    26     5     1   ar
    27    11     6   ar
    28    19    13   ar
    29    21    23    1
    30    21    24    1
@<TRIPOS>MOLECULE
*****
 28 30 0 0 0
SMALL
GASTEIGER

@<TRIPOS>ATOM
      1 N         140.5758  140.0815  169.0522 N.ar    1  UNL1       -0.1495
      2 N         139.1606  139.7717  169.4414 N.ar    1  UNL1       -0.0450
      3 N         138.3994  139.4367  168.1930 N.ar    1  UNL1       -0.1077
      4 C         139.3441  139.5395  167.0324 C.ar    1  UNL1        0.2058
      5 N         140.6891  139.9380  167.5634 N.ar    1  UNL1       -0.1297
      6 C         139.0035  139.2879  165.5933 C.ar    1  UNL1        0.0395
      7 C         138.2237  140.3079  164.8178 C.ar    1  UNL1        0.0063
      8 C         137.8831  140.0562  163.3789 C.ar    1  UNL1        0.0376
      9 C         138.3223  138.7846  162.7154 C.ar    1  UNL1        0.1453
     10 C         139.1021  137.7647  163.4910 C.ar    1  UNL1        0.0376
     11 C         139.4427  138.0163  164.9299 C.ar    1  UNL1        0.0063
     12 O         137.9817  138.5331  161.2764 O.3     1  UNL1       -0.4535
     13 C         138.8193  139.1401  160.1902 C.ar    1  UNL1        0.1454
     14 C         140.2659  138.7650  160.0603 C.ar    1  UNL1        0.0384
     15 C         141.1035  139.3721  158.9741 C.ar    1  UNL1        0.0145
     16 C         140.4946  140.3543  158.0178 C.ar    1  UNL1        0.0579
     17 CL        141.3322  140.9614  156.9316 Cl      1  UNL1       -0.0822
     18 C         139.0480  140.7294  158.1477 C.ar    1  UNL1        0.0145
     19 C         138.2104  140.1223  159.2338 C.ar    1  UNL1        0.0384
     20 C         141.6831  140.4671  169.9877 C.3     1  UNL1        0.1670
     21 N         142.2223  141.9840  172.0269 N.3     1  UNL1       -0.3202
     22 C         141.6785  141.8184  170.6388 C.3     1  UNL1        0.0831
     23 H         142.1408  142.9606  172.3097 H       1  UNL1        0.1189
     24 H         143.2036  141.7061  172.0430 H       1  UNL1        0.1189
     25 C         141.1300  143.0042  169.9017 C.3     1  UNL1        0.0593
     26 C         139.9517  143.7508  170.4533 C.2     1  UNL1        0.0517
     27 O         139.8962  145.2462  170.3501 O.co2   1  UNL1       -0.5491
     28 O         138.8290  143.0020  171.1081 O.co2   1  UNL1       -0.5491
@<TRIPOS>UNITY_ATOM_ATTR
27 1
charge -1
@<TRIPOS>BOND
     1    22    21    1
     2    22    25    1
     3    25    26    1
     4    26    27   ar
     5    26    28   ar
     6    22    20    1
     7    20     1    1
     8     1     2   ar
     9     2     3   ar
    10     3     4   ar
    11     4     6    1
    12     6     7   ar
    13     7     8   ar
    14     8     9   ar
    15     9    12    1
    16    12    13    1
    17    13    14   ar
    18    14    15   ar
    19    15    16   ar
    20    16    17    1
    21    16    18   ar
    22    18    19   ar
    23     9    10   ar
    24    10    11   ar
    25     4     5   ar
    26     5     1   ar
    27    11     6   ar
    28    19    13   ar
    29    21    23    1
    30    21    24    1
@<TRIPOS>MOLECULE
*****
 28 30 0 0 0
SMALL
GASTEIGER

@<TRIPOS>ATOM
      1 N         140.2050  140.0382  169.2445 N.ar    1  UNL1       -0.1495
      2 N         138.7781  139.6908  169.5499 N.ar    1  UNL1       -0.0450
      3 N         138.0991  139.3433  168.2583 N.ar    1  UNL1       -0.1077
      4 C         139.1063  139.4759  167.1547 C.ar    1  UNL1        0.2058
      5 N         140.4079  139.9053  167.7642 N.ar    1  UNL1       -0.1297
      6 C         138.8559  139.2233  165.6974 C.ar    1  UNL1        0.0395
      7 C         138.2876  140.3107  164.8346 C.ar    1  UNL1        0.0063
      8 C         138.0372  140.0581  163.3774 C.ar    1  UNL1        0.0376
      9 C         138.3552  138.7181  162.7831 C.ar    1  UNL1        0.1453
     10 C         138.9235  137.6307  163.6459 C.ar    1  UNL1        0.0376
     11 C         139.1739  137.8833  165.1031 C.ar    1  UNL1        0.0063
     12 O         138.1048  138.4656  161.3258 O.3     1  UNL1       -0.4535
     13 C         139.0371  139.0308  160.2956 C.ar    1  UNL1        0.1454
     14 C         138.5314  140.0219  159.2896 C.ar    1  UNL1        0.0384
     15 C         139.4638  140.5871  158.2594 C.ar    1  UNL1        0.0145
     16 C         140.9019  140.1612  158.2353 C.ar    1  UNL1        0.0579
     17 CL        141.8342  140.7264  157.2051 Cl      1  UNL1       -0.0822
     18 C         141.4076  139.1701  159.2412 C.ar    1  UNL1        0.0145
     19 C         140.4752  138.6049  160.2714 C.ar    1  UNL1        0.0384
     20 C         141.2463  140.4467  170.2440 C.3     1  UNL1        0.1670
     21 N         140.6235  142.2039  172.0534 N.3     1  UNL1       -0.3202
     22 C         141.2851  141.8572  170.7526 C.3     1  UNL1        0.0831
     23 H         140.7472  143.1984  172.2433 H       1  UNL1        0.1189
     24 H         141.0456  141.6591  172.8053 H       1  UNL1        0.1189
     25 C         141.9856  142.9212  169.9605 C.3     1  UNL1        0.0593
     26 C         143.2405  142.5919  169.2077 C.2     1  UNL1        0.0517
     27 O         143.1611  142.1325  167.7820 O.co2   1  UNL1       -0.5491
     28 O         144.5747  142.7221  169.8805 O.co2   1  UNL1       -0.5491
@<TRIPOS>UNITY_ATOM_ATTR
27 1
charge -1
@<TRIPOS>BOND
     1    22    21    1
     2    22    25    1
     3    25    26    1
     4    26    27   ar
     5    26    28   ar
     6    22    20    1
     7    20     1    1
     8     1     2   ar
     9     2     3   ar
    10     3     4   ar
    11     4     6    1
    12     6     7   ar
    13     7     8   ar
    14     8     9   ar
    15     9    12    1
    16    12    13    1
    17    13    14   ar
    18    14    15   ar
    19    15    16   ar
    20    16    17    1
    21    16    18   ar
    22    18    19   ar
    23     9    10   ar
    24    10    11   ar
    25     4     5   ar
    26     5     1   ar
    27    11     6   ar
    28    19    13   ar
    29    21    23    1
    30    21    24    1
@<TRIPOS>MOLECULE
*****
 28 30 0 0 0
SMALL
GASTEIGER

@<TRIPOS>ATOM
      1 N         142.9419  137.6760  158.5528 N.ar    1  UNL1       -0.1495
      2 N         143.5557  139.0428  158.4790 N.ar    1  UNL1       -0.0450
      3 N         143.7515  139.5393  159.8808 N.ar    1  UNL1       -0.1077
      4 C         143.2587  138.4795  160.8210 C.ar    1  UNL1        0.2058
      5 N         142.7584  137.3279  160.0003 N.ar    1  UNL1       -0.1297
      6 C         143.2652  138.5575  162.3190 C.ar    1  UNL1        0.0395
      7 C         142.1329  137.9669  163.1057 C.ar    1  UNL1        0.0063
      8 C         142.1394  138.0450  164.6036 C.ar    1  UNL1        0.0376
      9 C         143.2782  138.7137  165.3149 C.ar    1  UNL1        0.1453
     10 C         144.4105  139.3043  164.5282 C.ar    1  UNL1        0.0376
     11 C         144.4040  139.2262  163.0302 C.ar    1  UNL1        0.0063
     12 O         143.2847  138.7917  166.8129 O.3     1  UNL1       -0.4535
     13 C         142.5760  139.9161  167.5083 C.ar    1  UNL1        0.1454
     14 C         142.2971  141.1945  166.7750 C.ar    1  UNL1        0.0384
     15 C         141.5884  142.3188  167.4706 C.ar    1  UNL1        0.0145
     16 C         141.1588  142.1647  168.8994 C.ar    1  UNL1        0.0579
     17 CL        140.4502  143.2890  169.5949 Cl      1  UNL1       -0.0822
     18 C         141.4377  140.8863  169.6327 C.ar    1  UNL1        0.0145
     19 C         142.1463  139.7620  168.9372 C.ar    1  UNL1        0.0384
     20 C         142.5759  136.8096  157.3843 C.3     1  UNL1        0.1670
     21 N         144.4283  137.5528  155.7212 N.3     1  UNL1       -0.3202
     22 C         143.6090  136.4664  156.3524 C.3     1  UNL1        0.0831
     23 H         145.0756  137.1428  155.0478 H       1  UNL1        0.1189
     24 H         144.9550  138.0445  156.4431 H       1  UNL1        0.1189
     25 C         143.8229  135.0367  155.9518 C.3     1  UNL1        0.0593
     26 C         143.4099  133.9292  156.8753 C.2     1  UNL1        0.0517
     27 O         144.2445  133.6059  158.0789 O.co2   1  UNL1       -0.5491
     28 O         142.1623  133.1451  156.5951 O.co2   1  UNL1       -0.5491
@<TRIPOS>UNITY_ATOM_ATTR
27 1
charge -1
@<TRIPOS>BOND
     1    22    21    1
     2    22    25    1
     3    25    26    1
     4    26    27   ar
     5    26    28   ar
     6    22    20    1
     7    20     1    1
     8     1     2   ar
     9     2     3   ar
    10     3     4   ar
    11     4     6    1
    12     6     7   ar
    13     7     8   ar
    14     8     9   ar
    15     9    12    1
    16    12    13    1
    17    13    14   ar
    18    14    15   ar
    19    15    16   ar
    20    16    17    1
    21    16    18   ar
    22    18    19   ar
    23     9    10   ar
    24    10    11   ar
    25     4     5   ar
    26     5     1   ar
    27    11     6   ar
    28    19    13   ar
    29    21    23    1
    30    21    24    1
@<TRIPOS>MOLECULE
*****
 28 30 0 0 0
SMALL
GASTEIGER

@<TRIPOS>ATOM
      1 N         143.3707  139.5967  158.9272 N.ar    1  UNL1       -0.1495
      2 N         143.1542  138.1129  158.8879 N.ar    1  UNL1       -0.0450
      3 N         143.1142  137.6128  160.3015 N.ar    1  UNL1       -0.1077
      4 C         143.3061  138.7875  161.2144 C.ar    1  UNL1        0.2058
      5 N         143.4646  140.0136  160.3650 N.ar    1  UNL1       -0.1297
      6 C         143.3344  138.7436  162.7135 C.ar    1  UNL1        0.0395
      7 C         144.4732  139.3717  163.4608 C.ar    1  UNL1        0.0063
      8 C         144.5015  139.3278  164.9599 C.ar    1  UNL1        0.0376
      9 C         143.3909  138.6559  165.7116 C.ar    1  UNL1        0.1453
     10 C         142.2520  138.0279  164.9643 C.ar    1  UNL1        0.0376
     11 C         142.2238  138.0718  163.4653 C.ar    1  UNL1        0.0063
     12 O         143.4192  138.6121  167.2108 O.3     1  UNL1       -0.4535
     13 C         142.5303  139.5229  168.0047 C.ar    1  UNL1        0.1454
     14 C         142.2812  139.2481  169.4581 C.ar    1  UNL1        0.0384
     15 C         141.3922  140.1590  170.2520 C.ar    1  UNL1        0.0145
     16 C         140.7523  141.3444  169.5924 C.ar    1  UNL1        0.0579
     17 CL        139.8633  142.2551  170.3862 Cl      1  UNL1       -0.0822
     18 C         141.0013  141.6191  168.1389 C.ar    1  UNL1        0.0145
     19 C         141.8902  140.7084  167.3451 C.ar    1  UNL1        0.0384
     20 C         143.4751  140.5043  157.7374 C.3     1  UNL1        0.1670
     21 N         145.6357  139.8527  156.4502 N.3     1  UNL1       -0.3202
     22 C         144.8226  140.8726  157.1909 C.3     1  UNL1        0.0831
     23 H         146.5166  140.2717  156.1519 H       1  UNL1        0.1189
     24 H         145.1169  139.5333  155.6321 H       1  UNL1        0.1189
     25 C         145.3569  142.2607  157.3852 C.3     1  UNL1        0.0593
     26 C         146.7973  142.5579  157.0905 C.2     1  UNL1        0.0517
     27 O         147.4017  142.1225  155.7885 O.co2   1  UNL1       -0.5491
     28 O         147.6332  143.2905  158.0976 O.co2   1  UNL1       -0.5491
@<TRIPOS>UNITY_ATOM_ATTR
27 1
charge -1
@<TRIPOS>BOND
     1    22    21    1
     2    22    25    1
     3    25    26    1
     4    26    27   ar
     5    26    28   ar
     6    22    20    1
     7    20     1    1
     8     1     2   ar
     9     2     3   ar
    10     3     4   ar
    11     4     6    1
    12     6     7   ar
    13     7     8   ar
    14     8     9   ar
    15     9    12    1
    16    12    13    1
    17    13    14   ar
    18    14    15   ar
    19    15    16   ar
    20    16    17    1
    21    16    18   ar
    22    18    19   ar
    23     9    10   ar
    24    10    11   ar
    25     4     5   ar
    26     5     1   ar
    27    11     6   ar
    28    19    13   ar
    29    21    23    1
    30    21    24    1
@<TRIPOS>MOLECULE
*****
 28 30 0 0 0
SMALL
GASTEIGER

@<TRIPOS>ATOM
      1 N         138.8152  139.9400  168.6380 N.ar    1  UNL1       -0.1495
      2 N         137.6819  138.9613  168.5473 N.ar    1  UNL1       -0.0450
      3 N         137.6951  138.3631  167.1719 N.ar    1  UNL1       -0.1077
      4 C         138.8365  138.9719  166.4125 C.ar    1  UNL1        0.2058
      5 N         139.5287  139.9465  167.3186 N.ar    1  UNL1       -0.1297
      6 C         139.2185  138.6608  164.9956 C.ar    1  UNL1        0.0395
      7 C         138.5404  139.3722  163.8625 C.ar    1  UNL1        0.0063
      8 C         138.9225  139.0610  162.4458 C.ar    1  UNL1        0.0376
      9 C         139.9826  138.0384  162.1622 C.ar    1  UNL1        0.1453
     10 C         140.6607  137.3270  163.2953 C.ar    1  UNL1        0.0376
     11 C         140.2786  137.6382  164.7120 C.ar    1  UNL1        0.0063
     12 O         140.3646  137.7273  160.7454 O.3     1  UNL1       -0.4535
     13 C         141.4037  138.5556  160.0496 C.ar    1  UNL1        0.1454
     14 C         142.2236  139.5404  160.8294 C.ar    1  UNL1        0.0384
     15 C         143.2627  140.3687  160.1335 C.ar    1  UNL1        0.0145
     16 C         143.4820  140.2123  158.6580 C.ar    1  UNL1        0.0579
     17 CL        144.5211  141.0406  157.9622 Cl      1  UNL1       -0.0822
     18 C         142.6621  139.2275  157.8781 C.ar    1  UNL1        0.0145
     19 C         141.6230  138.3992  158.5739 C.ar    1  UNL1        0.0384
     20 C         139.1722  140.7669  169.8375 C.3     1  UNL1        0.1670
     21 N         140.8155  141.3406  171.7663 N.3     1  UNL1       -0.3202
     22 C         140.4454  140.4964  170.5829 C.3     1  UNL1        0.0831
     23 H         141.7050  141.0192  172.1483 H       1  UNL1        0.1189
     24 H         140.0908  141.2622  172.4798 H       1  UNL1        0.1189
     25 C         141.3486  139.3817  170.1449 C.3     1  UNL1        0.0593
     26 C         142.6684  139.6937  169.5040 C.2     1  UNL1        0.0517
     27 O         143.5213  140.8027  170.0449 O.co2   1  UNL1       -0.5491
     28 O         143.1352  138.8966  168.3222 O.co2   1  UNL1       -0.5491
@<TRIPOS>UNITY_ATOM_ATTR
27 1
charge -1
@<TRIPOS>BOND
     1    22    21    1
     2    22    25    1
     3    25    26    1
     4    26    27   ar
     5    26    28   ar
     6    22    20    1
     7    20     1    1
     8     1     2   ar
     9     2     3   ar
    10     3     4   ar
    11     4     6    1
    12     6     7   ar
    13     7     8   ar
    14     8     9   ar
    15     9    12    1
    16    12    13    1
    17    13    14   ar
    18    14    15   ar
    19    15    16   ar
    20    16    17    1
    21    16    18   ar
    22    18    19   ar
    23     9    10   ar
    24    10    11   ar
    25     4     5   ar
    26     5     1   ar
    27    11     6   ar
    28    19    13   ar
    29    21    23    1
    30    21    24    1
@<TRIPOS>MOLECULE
*****
 28 30 0 0 0
SMALL
GASTEIGER

@<TRIPOS>ATOM
      1 N         139.0497  139.8564  167.8728 N.ar    1  UNL1       -0.1495
      2 N         137.9470  138.8400  167.9067 N.ar    1  UNL1       -0.0450
      3 N         137.5626  138.5259  166.4912 N.ar    1  UNL1       -0.1077
      4 C         138.4275  139.3482  165.5826 C.ar    1  UNL1        0.2058
      5 N         139.3466  140.1705  166.4364 N.ar    1  UNL1       -0.1297
      6 C         138.3815  139.3483  164.0832 C.ar    1  UNL1        0.0395
      7 C         138.9160  138.1751  163.3164 C.ar    1  UNL1        0.0063
      8 C         138.8700  138.1752  161.8172 C.ar    1  UNL1        0.0376
      9 C         138.2894  139.3484  161.0847 C.ar    1  UNL1        0.1453
     10 C         137.7548  140.5215  161.8515 C.ar    1  UNL1        0.0376
     11 C         137.8009  140.5214  163.3507 C.ar    1  UNL1        0.0063
     12 O         138.2433  139.3484  159.5853 O.3     1  UNL1       -0.4535
     13 C         138.5321  140.6094  158.8261 C.ar    1  UNL1        0.1454
     14 C         139.8367  141.3225  159.0249 C.ar    1  UNL1        0.0384
     15 C         140.1254  142.5835  158.2656 C.ar    1  UNL1        0.0145
     16 C         139.1095  143.1314  157.3076 C.ar    1  UNL1        0.0579
     17 CL        139.3982  144.3924  156.5484 Cl      1  UNL1       -0.0822
     18 C         137.8049  142.4183  157.1089 C.ar    1  UNL1        0.0145
     19 C         137.5162  141.1573  157.8681 C.ar    1  UNL1        0.0384
     20 C         139.7350  140.4538  169.0659 C.3     1  UNL1        0.1670
     21 N         142.0611  140.0381  167.9860 N.3     1  UNL1       -0.3202
     22 C         141.2288  140.3873  169.1841 C.3     1  UNL1        0.0831
     23 H         143.0476  140.0389  168.2453 H       1  UNL1        0.1189
     24 H         141.9026  140.7260  167.2497 H       1  UNL1        0.1189
     25 C         141.8904  140.6698  170.5003 C.3     1  UNL1        0.0593
     26 C         141.7014  142.0016  171.1641 C.2     1  UNL1        0.0517
     27 O         142.6745  143.1134  170.9053 O.co2   1  UNL1       -0.5491
     28 O         140.5394  142.2216  172.0866 O.co2   1  UNL1       -0.5491
@<TRIPOS>UNITY_ATOM_ATTR
27 1
charge -1
@<TRIPOS>BOND
     1    22    21    1
     2    22    25    1
     3    25    26    1
     4    26    27   ar
     5    26    28   ar
     6    22    20    1
     7    20     1    1
     8     1     2   ar
     9     2     3   ar
    10     3     4   ar
    11     4     6    1
    12     6     7   ar
    13     7     8   ar
    14     8     9   ar
    15     9    12    1
    16    12    13    1
    17    13    14   ar
    18    14    15   ar
    19    15    16   ar
    20    16    17    1
    21    16    18   ar
    22    18    19   ar
    23     9    10   ar
    24    10    11   ar
    25     4     5   ar
    26     5     1   ar
    27    11     6   ar
    28    19    13   ar
    29    21    23    1
    30    21    24    1
@<TRIPOS>MOLECULE
*****
 28 30 0 0 0
SMALL
GASTEIGER

@<TRIPOS>ATOM
      1 N         139.7352  139.9143  165.0395 N.ar    1  UNL1       -0.1495
      2 N         138.5136  139.1906  164.5557 N.ar    1  UNL1       -0.0450
      3 N         138.8208  138.6141  163.2054 N.ar    1  UNL1       -0.1077
      4 C         140.2322  138.9815  162.8547 C.ar    1  UNL1        0.2058
      5 N         140.7973  139.7851  163.9882 N.ar    1  UNL1       -0.1297
      6 C         140.9520  138.6105  161.5921 C.ar    1  UNL1        0.0395
      7 C         142.2743  137.9057  161.6620 C.ar    1  UNL1        0.0063
      8 C         142.9941  137.5347  160.3994 C.ar    1  UNL1        0.0376
      9 C         142.3916  137.8685  159.0668 C.ar    1  UNL1        0.1453
     10 C         141.0694  138.5732  158.9969 C.ar    1  UNL1        0.0376
     11 C         140.3496  138.9442  160.2595 C.ar    1  UNL1        0.0063
     12 O         143.1115  137.4974  157.8042 O.3     1  UNL1       -0.4535
     13 C         142.6961  136.2789  157.0345 C.ar    1  UNL1        0.1454
     14 C         141.6646  136.3915  155.9513 C.ar    1  UNL1        0.0384
     15 C         141.2492  135.1729  155.1815 C.ar    1  UNL1        0.0145
     16 C         141.8654  133.8417  155.4950 C.ar    1  UNL1        0.0579
     17 CL        141.4500  132.6231  154.7252 Cl      1  UNL1       -0.0822
     18 C         142.8969  133.7291  156.5781 C.ar    1  UNL1        0.0145
     19 C         143.3123  134.9476  157.3479 C.ar    1  UNL1        0.0384
     20 C         139.8708  140.6398  166.3454 C.3     1  UNL1        0.1670
     21 N         138.3221  139.0250  167.6657 N.3     1  UNL1       -0.3202
     22 C         139.4990  139.9540  167.6265 C.3     1  UNL1        0.0831
     23 H         138.2157  138.6505  168.6085 H       1  UNL1        0.1189
     24 H         138.4723  138.2580  167.0103 H       1  UNL1        0.1189
     25 C         140.3042  140.1973  168.8685 C.3     1  UNL1        0.0593
     26 C         139.6223  140.2671  170.2027 C.2     1  UNL1        0.0517
     27 O         138.1501  139.9996  170.3075 O.co2   1  UNL1       -0.5491
     28 O         140.4126  140.6046  171.4321 O.co2   1  UNL1       -0.5491
@<TRIPOS>UNITY_ATOM_ATTR
27 1
charge -1
@<TRIPOS>BOND
     1    22    21    1
     2    22    25    1
     3    25    26    1
     4    26    27   ar
     5    26    28   ar
     6    22    20    1
     7    20     1    1
     8     1     2   ar
     9     2     3   ar
    10     3     4   ar
    11     4     6    1
    12     6     7   ar
    13     7     8   ar
    14     8     9   ar
    15     9    12    1
    16    12    13    1
    17    13    14   ar
    18    14    15   ar
    19    15    16   ar
    20    16    17    1
    21    16    18   ar
    22    18    19   ar
    23     9    10   ar
    24    10    11   ar
    25     4     5   ar
    26     5     1   ar
    27    11     6   ar
    28    19    13   ar
    29    21    23    1
    30    21    24    1
