@<TRIPOS>MOLECULE
*****
 30 34 0 0 0
SMALL
GASTEIGER

@<TRIPOS>ATOM
      1 C         140.8361  140.7407  166.5344 C.2     1  UNL1        0.3756
      2 N         140.7438  141.2405  165.1232 N.2     1  UNL1       -0.0230
      3 C         140.1006  140.1692  164.2932 C.2     1  UNL1        0.3133
      4 C         139.7534  140.1017  162.8355 C.2     1  UNL1        0.3703
      5 N         139.1010  138.8723  162.2761 N.2     1  UNL1       -0.0367
      6 C         138.7957  137.7105  163.1744 C.2     1  UNL1        0.2179
      7 C         139.1429  137.7781  164.6321 C.3     1  UNL1        0.1552
      8 C         139.7953  139.0074  165.1915 C.2     1  UNL1        0.2294
      9 N         140.2499  139.3606  166.5766 N.2     1  UNL1       -0.0343
     10 F         143.1445  143.7358  171.1928 F       1  UNL1       -0.2018
     11 C         142.5674  142.9870  170.0282 C.ar    1  UNL1        0.1674
     12 C         143.3307  141.8510  169.4144 C.ar    1  UNL1        0.0322
     13 C         142.7536  141.1022  168.2498 C.ar    1  UNL1        0.0101
     14 C         141.4132  141.4895  167.6991 C.ar    1  UNL1        0.0908
     15 C         140.6499  142.6255  168.3129 C.ar    1  UNL1        0.0396
     16 C         141.2270  143.3743  169.4775 C.ar    1  UNL1        0.1676
     17 F         140.4637  144.5103  170.0913 F       1  UNL1       -0.2018
     18 N         140.0587  141.2636  161.9372 N.pl3   1  UNL1       -0.1872
     19 C         139.1866  142.4836  161.9663 C.3     1  UNL1        0.2025
     20 C         139.4918  143.6455  161.0680 C.3     1  UNL1        0.0523
     21 C         140.6693  143.5873  160.1406 C.3     1  UNL1        0.0242
     22 C         141.5415  142.3672  160.1114 C.3     1  UNL1        0.0523
     23 C         141.2362  141.2054  161.0097 C.3     1  UNL1        0.2025
     24 C         140.9746  144.7491  159.2423 C.3     1  UNL1        0.0725
     25 N         140.1970  144.9411  157.9741 N.3     1  UNL1       -0.2685
     26 C         140.1219  146.2977  157.3385 C.3     1  UNL1        0.1046
     27 C         139.3443  146.4897  156.0702 C.3     1  UNL1        0.1595
     28 O         138.6418  145.3251  155.4376 O.3     1  UNL1       -0.3508
     29 C         138.7169  143.9685  156.0732 C.3     1  UNL1        0.1595
     30 C         139.4945  143.7765  157.3414 C.3     1  UNL1        0.1046
@<TRIPOS>BOND
     1    10    11    1
     2    11    12   ar
     3    12    13   ar
     4    13    14   ar
     5    14     1    1
     6     1     2    2
     7     2     3    1
     8     3     4    2
     9     4    18    1
    10    18    19    1
    11    19    20    1
    12    20    21    1
    13    21    24    1
    14    24    25    1
    15    25    26    1
    16    26    27    1
    17    27    28    1
    18    28    29    1
    19    29    30    1
    20    21    22    1
    21    22    23    1
    22     4     5    1
    23     5     6    2
    24     6     7    1
    25     7     8    1
    26     8     9    2
    27    14    15   ar
    28    15    16   ar
    29    16    17    1
    30    16    11   ar
    31     9     1    1
    32     8     3    1
    33    23    18    1
    34    30    25    1
@<TRIPOS>MOLECULE
*****
 30 34 0 0 0
SMALL
GASTEIGER

@<TRIPOS>ATOM
      1 C         141.0423  140.5545  166.5366 C.2     1  UNL1        0.3756
      2 N         141.4978  140.7164  165.1167 N.2     1  UNL1       -0.0230
      3 C         140.7326  139.7424  164.2705 C.2     1  UNL1        0.3133
      4 C         140.7613  139.4524  162.7991 C.2     1  UNL1        0.3703
      5 N         139.8616  138.3985  162.2247 N.2     1  UNL1       -0.0367
      6 C         138.9332  137.6347  163.1218 C.2     1  UNL1        0.2179
      7 C         138.9046  137.9247  164.5932 C.3     1  UNL1        0.1552
      8 C         139.8042  138.9786  165.1676 C.2     1  UNL1        0.2294
      9 N         139.9957  139.4805  166.5681 N.2     1  UNL1       -0.0343
     10 F         143.0538  143.6581  171.2613 F       1  UNL1       -0.2018
     11 C         142.5509  142.8822  170.0801 C.ar    1  UNL1        0.1674
     12 C         143.3499  141.7318  169.5431 C.ar    1  UNL1        0.0322
     13 C         142.8471  140.9560  168.3620 C.ar    1  UNL1        0.0101
     14 C         141.5452  141.3304  167.7178 C.ar    1  UNL1        0.0908
     15 C         140.7462  142.4807  168.2548 C.ar    1  UNL1        0.0396
     16 C         141.2490  143.2566  169.4359 C.ar    1  UNL1        0.1676
     17 F         140.4500  144.4069  169.9729 F       1  UNL1       -0.2018
     18 N         141.6897  140.2162  161.9021 N.pl3   1  UNL1       -0.1872
     19 C         143.1651  139.9498  161.9480 C.3     1  UNL1        0.2025
     20 C         144.0935  140.7136  161.0509 C.3     1  UNL1        0.0523
     21 C         143.5464  141.7440  160.1080 C.3     1  UNL1        0.0242
     22 C         142.0709  142.0105  160.0622 C.3     1  UNL1        0.0523
     23 C         141.1426  141.2466  160.9592 C.3     1  UNL1        0.2025
     24 C         144.4747  142.5079  159.2110 C.3     1  UNL1        0.0725
     25 N         144.9700  141.8853  157.9394 N.3     1  UNL1       -0.2685
     26 C         146.1786  142.4466  157.2506 C.3     1  UNL1        0.1046
     27 C         146.6739  141.8240  155.9790 C.3     1  UNL1        0.1595
     28 O         145.9606  140.6401  155.3961 O.3     1  UNL1       -0.3508
     29 C         144.7521  140.0788  156.0849 C.3     1  UNL1        0.1595
     30 C         144.2568  140.7014  157.3565 C.3     1  UNL1        0.1046
@<TRIPOS>BOND
     1    10    11    1
     2    11    12   ar
     3    12    13   ar
     4    13    14   ar
     5    14     1    1
     6     1     2    2
     7     2     3    1
     8     3     4    2
     9     4    18    1
    10    18    19    1
    11    19    20    1
    12    20    21    1
    13    21    24    1
    14    24    25    1
    15    25    26    1
    16    26    27    1
    17    27    28    1
    18    28    29    1
    19    29    30    1
    20    21    22    1
    21    22    23    1
    22     4     5    1
    23     5     6    2
    24     6     7    1
    25     7     8    1
    26     8     9    2
    27    14    15   ar
    28    15    16   ar
    29    16    17    1
    30    16    11   ar
    31     9     1    1
    32     8     3    1
    33    23    18    1
    34    30    25    1
@<TRIPOS>MOLECULE
*****
 30 34 0 0 0
SMALL
GASTEIGER

@<TRIPOS>ATOM
      1 C         143.4957  135.5488  156.5416 C.2     1  UNL1        0.3756
      2 N         142.7160  136.1859  157.6535 N.2     1  UNL1       -0.0230
      3 C         142.7061  137.6680  157.4225 C.2     1  UNL1        0.3133
      4 C         142.0926  138.7997  158.1926 C.2     1  UNL1        0.3703
      5 N         142.2526  140.2102  157.7081 N.2     1  UNL1       -0.0367
      6 C         143.0262  140.4891  156.4536 C.2     1  UNL1        0.2179
      7 C         143.6397  139.3574  155.6836 C.3     1  UNL1        0.1552
      8 C         143.4796  137.9469  156.1680 C.2     1  UNL1        0.2294
      9 N         143.9676  136.6372  155.6236 N.2     1  UNL1       -0.0343
     10 F         144.5430  129.6778  155.8821 F       1  UNL1       -0.2018
     11 C         144.2812  131.1456  156.0470 C.ar    1  UNL1        0.1674
     12 C         143.5822  131.9093  154.9616 C.ar    1  UNL1        0.0322
     13 C         143.3204  133.3770  155.1264 C.ar    1  UNL1        0.0101
     14 C         143.7575  134.0810  156.3767 C.ar    1  UNL1        0.0908
     15 C         144.4565  133.3173  157.4622 C.ar    1  UNL1        0.0396
     16 C         144.7183  131.8496  157.2973 C.ar    1  UNL1        0.1676
     17 F         145.4172  131.0858  158.3828 F       1  UNL1       -0.2018
     18 N         141.3190  138.5207  159.4471 N.pl3   1  UNL1       -0.1872
     19 C         142.0385  138.0985  160.6937 C.3     1  UNL1        0.2025
     20 C         141.2650  137.8195  161.9482 C.3     1  UNL1        0.0523
     21 C         139.7718  137.9629  161.9562 C.3     1  UNL1        0.0242
     22 C         139.0523  138.3852  160.7095 C.3     1  UNL1        0.0523
     23 C         139.8259  138.6641  159.4551 C.3     1  UNL1        0.2025
     24 C         138.9983  137.6840  163.2106 C.3     1  UNL1        0.0725
     25 N         139.0406  138.6584  164.3502 N.3     1  UNL1       -0.2685
     26 C         138.5560  138.2457  165.7084 C.3     1  UNL1        0.1046
     27 C         138.5984  139.2203  166.8479 C.3     1  UNL1        0.1595
     28 O         139.1254  140.6075  166.6292 O.3     1  UNL1       -0.3508
     29 C         139.6101  141.0202  165.2710 C.3     1  UNL1        0.1595
     30 C         139.5677  140.0457  164.1315 C.3     1  UNL1        0.1046
@<TRIPOS>BOND
     1    10    11    1
     2    11    12   ar
     3    12    13   ar
     4    13    14   ar
     5    14     1    1
     6     1     2    2
     7     2     3    1
     8     3     4    2
     9     4    18    1
    10    18    19    1
    11    19    20    1
    12    20    21    1
    13    21    24    1
    14    24    25    1
    15    25    26    1
    16    26    27    1
    17    27    28    1
    18    28    29    1
    19    29    30    1
    20    21    22    1
    21    22    23    1
    22     4     5    1
    23     5     6    2
    24     6     7    1
    25     7     8    1
    26     8     9    2
    27    14    15   ar
    28    15    16   ar
    29    16    17    1
    30    16    11   ar
    31     9     1    1
    32     8     3    1
    33    23    18    1
    34    30    25    1
@<TRIPOS>MOLECULE
*****
 30 34 0 0 0
SMALL
GASTEIGER

@<TRIPOS>ATOM
      1 C         143.3477  134.8668  156.0931 C.2     1  UNL1        0.3756
      2 N         142.6551  135.6944  157.1349 N.2     1  UNL1       -0.0230
      3 C         143.0241  137.1303  156.9068 C.2     1  UNL1        0.3133
      4 C         142.6407  138.3911  157.6234 C.2     1  UNL1        0.3703
      5 N         143.1780  139.7117  157.1572 N.2     1  UNL1       -0.0367
      6 C         144.0986  139.7715  155.9745 C.2     1  UNL1        0.2179
      7 C         144.4820  138.5107  155.2580 C.3     1  UNL1        0.1552
      8 C         143.9448  137.1901  155.7241 C.2     1  UNL1        0.2294
      9 N         144.1448  135.7912  155.2212 N.2     1  UNL1       -0.0343
     10 F         142.9923  128.9052  155.5148 F       1  UNL1       -0.2018
     11 C         143.0812  130.3957  155.6594 C.ar    1  UNL1        0.1674
     12 C         144.3952  131.0404  155.9875 C.ar    1  UNL1        0.0322
     13 C         144.4841  132.5307  156.1321 C.ar    1  UNL1        0.0101
     14 C         143.2589  133.3763  155.9486 C.ar    1  UNL1        0.0908
     15 C         141.9448  132.7317  155.6205 C.ar    1  UNL1        0.0396
     16 C         141.8560  131.2413  155.4759 C.ar    1  UNL1        0.1676
     17 F         140.5419  130.5966  155.1478 F       1  UNL1       -0.2018
     18 N         141.7201  138.3313  158.8061 N.pl3   1  UNL1       -0.1872
     19 C         140.2423  138.5046  158.6158 C.3     1  UNL1        0.2025
     20 C         139.3217  138.4447  159.7985 C.3     1  UNL1        0.0523
     21 C         139.8788  138.2116  161.1716 C.3     1  UNL1        0.0242
     22 C         141.3566  138.0383  161.3619 C.3     1  UNL1        0.0523
     23 C         142.2772  138.0981  160.1792 C.3     1  UNL1        0.2025
     24 C         138.9582  138.1517  162.3543 C.3     1  UNL1        0.0725
     25 N         138.5957  139.4094  163.0869 N.3     1  UNL1       -0.2685
     26 C         137.7651  140.4590  162.4097 C.3     1  UNL1        0.1046
     27 C         137.4026  141.7167  163.1424 C.3     1  UNL1        0.1595
     28 O         137.8706  141.9248  164.5522 O.3     1  UNL1       -0.3508
     29 C         138.7012  140.8753  165.2294 C.3     1  UNL1        0.1595
     30 C         139.0637  139.6176  164.4968 C.3     1  UNL1        0.1046
@<TRIPOS>BOND
     1    10    11    1
     2    11    12   ar
     3    12    13   ar
     4    13    14   ar
     5    14     1    1
     6     1     2    2
     7     2     3    1
     8     3     4    2
     9     4    18    1
    10    18    19    1
    11    19    20    1
    12    20    21    1
    13    21    24    1
    14    24    25    1
    15    25    26    1
    16    26    27    1
    17    27    28    1
    18    28    29    1
    19    29    30    1
    20    21    22    1
    21    22    23    1
    22     4     5    1
    23     5     6    2
    24     6     7    1
    25     7     8    1
    26     8     9    2
    27    14    15   ar
    28    15    16   ar
    29    16    17    1
    30    16    11   ar
    31     9     1    1
    32     8     3    1
    33    23    18    1
    34    30    25    1
@<TRIPOS>MOLECULE
*****
 30 34 0 0 0
SMALL
GASTEIGER

@<TRIPOS>ATOM
      1 C         139.6546  140.2900  165.8808 C.2     1  UNL1        0.3756
      2 N         139.8738  141.0053  164.5807 N.2     1  UNL1       -0.0230
      3 C         139.5333  140.0589  163.4679 C.2     1  UNL1        0.3133
      4 C         139.5590  140.2131  161.9760 C.2     1  UNL1        0.3703
      5 N         139.1550  139.0671  161.0965 N.2     1  UNL1       -0.0367
      6 C         138.7254  137.7669  161.7089 C.2     1  UNL1        0.2179
      7 C         138.6998  137.6128  163.2007 C.3     1  UNL1        0.1552
      8 C         139.1037  138.7587  164.0802 C.2     1  UNL1        0.2294
      9 N         139.1787  138.9016  165.5715 N.2     1  UNL1       -0.0343
     10 F         140.5282  142.5804  171.3573 F       1  UNL1       -0.2018
     11 C         140.3098  142.0078  169.9881 C.ar    1  UNL1        0.1674
     12 C         140.5736  142.8472  168.7733 C.ar    1  UNL1        0.0322
     13 C         140.3552  142.2746  167.4042 C.ar    1  UNL1        0.0101
     14 C         139.8731  140.8627  167.2500 C.ar    1  UNL1        0.0908
     15 C         139.6093  140.0232  168.4648 C.ar    1  UNL1        0.0396
     16 C         139.8277  140.5958  169.8339 C.ar    1  UNL1        0.1676
     17 F         139.5640  139.7564  171.0487 F       1  UNL1       -0.2018
     18 N         139.9886  141.5133  161.3637 N.pl3   1  UNL1       -0.1872
     19 C         141.4217  141.9470  161.4527 C.3     1  UNL1        0.2025
     20 C         141.8513  143.2472  160.8404 C.3     1  UNL1        0.0523
     21 C         140.8477  144.1137  160.1390 C.3     1  UNL1        0.0242
     22 C         139.4145  143.6800  160.0500 C.3     1  UNL1        0.0523
     23 C         138.9850  142.3798  160.6623 C.3     1  UNL1        0.2025
     24 C         141.2773  145.4139  159.5267 C.3     1  UNL1        0.0725
     25 N         141.2171  145.5985  158.0394 N.3     1  UNL1       -0.2685
     26 C         140.0964  146.3843  157.4259 C.3     1  UNL1        0.1046
     27 C         140.0362  146.5689  155.9384 C.3     1  UNL1        0.1595
     28 O         141.0968  145.9677  155.0646 O.3     1  UNL1       -0.3508
     29 C         142.2175  145.1818  155.6781 C.3     1  UNL1        0.1595
     30 C         142.2777  144.9972  157.1654 C.3     1  UNL1        0.1046
@<TRIPOS>BOND
     1    10    11    1
     2    11    12   ar
     3    12    13   ar
     4    13    14   ar
     5    14     1    1
     6     1     2    2
     7     2     3    1
     8     3     4    2
     9     4    18    1
    10    18    19    1
    11    19    20    1
    12    20    21    1
    13    21    24    1
    14    24    25    1
    15    25    26    1
    16    26    27    1
    17    27    28    1
    18    28    29    1
    19    29    30    1
    20    21    22    1
    21    22    23    1
    22     4     5    1
    23     5     6    2
    24     6     7    1
    25     7     8    1
    26     8     9    2
    27    14    15   ar
    28    15    16   ar
    29    16    17    1
    30    16    11   ar
    31     9     1    1
    32     8     3    1
    33    23    18    1
    34    30    25    1
@<TRIPOS>MOLECULE
*****
 30 34 0 0 0
SMALL
GASTEIGER

@<TRIPOS>ATOM
      1 C         142.6394  135.4830  156.7014 C.2     1  UNL1        0.3756
      2 N         142.8352  136.3633  157.9000 N.2     1  UNL1       -0.0230
      3 C         141.9977  137.5937  157.7132 C.2     1  UNL1        0.3133
      4 C         141.7926  138.8078  158.5699 C.2     1  UNL1        0.3703
      5 N         140.8741  139.9019  158.1126 N.2     1  UNL1       -0.0367
      6 C         140.1608  139.7820  156.7986 C.2     1  UNL1        0.2179
      7 C         140.3659  138.5679  155.9418 C.3     1  UNL1        0.1552
      8 C         141.2844  137.4738  156.3992 C.2     1  UNL1        0.2294
      9 N         141.6809  136.1693  155.7738 N.2     1  UNL1       -0.0343
     10 F         145.2343  130.1523  155.7790 F       1  UNL1       -0.2018
     11 C         144.5855  131.4850  156.0096 C.ar    1  UNL1        0.1674
     12 C         143.6740  132.0654  154.9694 C.ar    1  UNL1        0.0322
     13 C         143.0253  133.3981  155.1999 C.ar    1  UNL1        0.0101
     14 C         143.2881  134.1503  156.4708 C.ar    1  UNL1        0.0908
     15 C         144.1997  133.5698  157.5110 C.ar    1  UNL1        0.0396
     16 C         144.8484  132.2372  157.2804 C.ar    1  UNL1        0.1676
     17 F         145.7600  131.6568  158.3207 F       1  UNL1       -0.2018
     18 N         142.5060  138.9276  159.8840 N.pl3   1  UNL1       -0.1872
     19 C         142.1769  137.9865  161.0046 C.3     1  UNL1        0.2025
     20 C         142.8903  138.1063  162.3187 C.3     1  UNL1        0.0523
     21 C         143.9328  139.1674  162.5121 C.3     1  UNL1        0.0242
     22 C         144.2619  140.1086  161.3913 C.3     1  UNL1        0.0523
     23 C         143.5485  139.9887  160.0773 C.3     1  UNL1        0.2025
     24 C         144.6462  139.2873  163.8261 C.3     1  UNL1        0.0725
     25 N         143.9019  139.7478  165.0442 N.3     1  UNL1       -0.2685
     26 C         143.4839  138.7547  166.0878 C.3     1  UNL1        0.1046
     27 C         142.7396  139.2152  167.3060 C.3     1  UNL1        0.1595
     28 O         142.4133  140.6688  167.4806 O.3     1  UNL1       -0.3508
     29 C         142.8313  141.6619  166.4371 C.3     1  UNL1        0.1595
     30 C         143.5756  141.2015  165.2189 C.3     1  UNL1        0.1046
@<TRIPOS>BOND
     1    10    11    1
     2    11    12   ar
     3    12    13   ar
     4    13    14   ar
     5    14     1    1
     6     1     2    2
     7     2     3    1
     8     3     4    2
     9     4    18    1
    10    18    19    1
    11    19    20    1
    12    20    21    1
    13    21    24    1
    14    24    25    1
    15    25    26    1
    16    26    27    1
    17    27    28    1
    18    28    29    1
    19    29    30    1
    20    21    22    1
    21    22    23    1
    22     4     5    1
    23     5     6    2
    24     6     7    1
    25     7     8    1
    26     8     9    2
    27    14    15   ar
    28    15    16   ar
    29    16    17    1
    30    16    11   ar
    31     9     1    1
    32     8     3    1
    33    23    18    1
    34    30    25    1
@<TRIPOS>MOLECULE
*****
 30 34 0 0 0
SMALL
GASTEIGER

@<TRIPOS>ATOM
      1 C         140.8130  142.0637  166.4493 C.2     1  UNL1        0.3756
      2 N         140.9444  141.5705  165.0389 N.2     1  UNL1       -0.0230
      3 C         140.0712  142.4230  164.1665 C.2     1  UNL1        0.3133
      4 C         139.8004  142.4022  162.6913 C.2     1  UNL1        0.3703
      5 N         138.8586  143.4014  162.0875 N.2     1  UNL1       -0.0367
      6 C         138.1876  144.4213  162.9588 C.2     1  UNL1        0.2179
      7 C         138.4584  144.4422  164.4341 C.3     1  UNL1        0.1552
      8 C         139.4002  143.4430  165.0379 C.2     1  UNL1        0.2294
      9 N         139.8586  143.2209  166.4487 N.2     1  UNL1       -0.0343
     10 F         143.6133  139.8044  171.2508 F       1  UNL1       -0.2018
     11 C         142.9132  140.3692  170.0504 C.ar    1  UNL1        0.1674
     12 C         141.7533  139.6359  169.4446 C.ar    1  UNL1        0.0322
     13 C         141.0533  140.2007  168.2443 C.ar    1  UNL1        0.0101
     14 C         141.5131  141.4988  167.6497 C.ar    1  UNL1        0.0908
     15 C         142.6729  142.2321  168.2555 C.ar    1  UNL1        0.0396
     16 C         143.3730  141.6673  169.4559 C.ar    1  UNL1        0.1676
     17 F         144.5329  142.4006  170.0617 F       1  UNL1       -0.2018
     18 N         140.4715  141.3821  161.8199 N.pl3   1  UNL1       -0.1872
     19 C         140.2351  139.9202  162.0582 C.3     1  UNL1        0.2025
     20 C         140.9061  138.9001  161.1868 C.3     1  UNL1        0.0523
     21 C         141.8136  139.3421  160.0772 C.3     1  UNL1        0.0242
     22 C         142.0500  140.8041  159.8390 C.3     1  UNL1        0.0523
     23 C         141.3789  141.8241  160.7103 C.3     1  UNL1        0.2025
     24 C         142.4847  138.3222  159.2058 C.3     1  UNL1        0.0725
     25 N         141.7786  137.7898  157.9943 N.3     1  UNL1       -0.2685
     26 C         140.3273  138.0995  157.7754 C.3     1  UNL1        0.1046
     27 C         139.6212  137.5670  156.5638 C.3     1  UNL1        0.1595
     28 O         140.3664  136.7249  155.5711 O.3     1  UNL1       -0.3508
     29 C         141.8177  136.4152  155.7899 C.3     1  UNL1        0.1595
     30 C         142.5237  136.9476  157.0015 C.3     1  UNL1        0.1046
@<TRIPOS>BOND
     1    10    11    1
     2    11    12   ar
     3    12    13   ar
     4    13    14   ar
     5    14     1    1
     6     1     2    2
     7     2     3    1
     8     3     4    2
     9     4    18    1
    10    18    19    1
    11    19    20    1
    12    20    21    1
    13    21    24    1
    14    24    25    1
    15    25    26    1
    16    26    27    1
    17    27    28    1
    18    28    29    1
    19    29    30    1
    20    21    22    1
    21    22    23    1
    22     4     5    1
    23     5     6    2
    24     6     7    1
    25     7     8    1
    26     8     9    2
    27    14    15   ar
    28    15    16   ar
    29    16    17    1
    30    16    11   ar
    31     9     1    1
    32     8     3    1
    33    23    18    1
    34    30    25    1
@<TRIPOS>MOLECULE
*****
 30 34 0 0 0
SMALL
GASTEIGER

@<TRIPOS>ATOM
      1 C         140.9987  141.1832  164.5311 C.2     1  UNL1        0.3756
      2 N         140.9250  141.8749  163.2022 N.2     1  UNL1       -0.0230
      3 C         141.9635  142.9572  163.1848 C.2     1  UNL1        0.3133
      4 C         142.3500  143.9606  162.1389 C.2     1  UNL1        0.3703
      5 N         143.4519  144.9412  162.4112 N.2     1  UNL1       -0.0367
      6 C         144.1673  144.9184  163.7294 C.2     1  UNL1        0.2179
      7 C         143.7808  143.9150  164.7753 C.3     1  UNL1        0.1552
      8 C         142.6789  142.9344  164.5030 C.2     1  UNL1        0.2294
      9 N         142.0826  141.8380  165.3350 N.2     1  UNL1       -0.0343
     10 F         137.5612  136.6015  166.3178 F       1  UNL1       -0.2018
     11 C         138.4206  137.7469  165.8711 C.ar    1  UNL1        0.1674
     12 C         139.2064  137.6429  164.5977 C.ar    1  UNL1        0.0322
     13 C         140.0658  138.7883  164.1510 C.ar    1  UNL1        0.0101
     14 C         140.1393  140.0377  164.9778 C.ar    1  UNL1        0.0908
     15 C         139.3535  140.1417  166.2512 C.ar    1  UNL1        0.0396
     16 C         138.4941  138.9963  166.6979 C.ar    1  UNL1        0.1676
     17 F         137.7083  139.1003  167.9713 F       1  UNL1       -0.2018
     18 N         141.6345  143.9834  160.8207 N.pl3   1  UNL1       -0.1872
     19 C         140.8055  145.1734  160.4378 C.3     1  UNL1        0.2025
     20 C         140.0900  145.1962  159.1195 C.3     1  UNL1        0.0523
     21 C         140.2035  144.0289  158.1843 C.3     1  UNL1        0.0242
     22 C         141.0325  142.8388  158.5674 C.3     1  UNL1        0.0523
     23 C         141.7480  142.8161  159.8855 C.3     1  UNL1        0.2025
     24 C         139.4881  144.0516  156.8662 C.3     1  UNL1        0.0725
     25 N         139.8353  145.0913  155.8423 N.3     1  UNL1       -0.2685
     26 C         139.0692  146.3800  155.7923 C.3     1  UNL1        0.1046
     27 C         139.4164  147.4197  154.7683 C.3     1  UNL1        0.1595
     28 O         140.5297  147.1708  153.7944 O.3     1  UNL1       -0.3508
     29 C         141.2958  145.8822  153.8444 C.3     1  UNL1        0.1595
     30 C         140.9486  144.8424  154.8683 C.3     1  UNL1        0.1046
@<TRIPOS>BOND
     1    10    11    1
     2    11    12   ar
     3    12    13   ar
     4    13    14   ar
     5    14     1    1
     6     1     2    2
     7     2     3    1
     8     3     4    2
     9     4    18    1
    10    18    19    1
    11    19    20    1
    12    20    21    1
    13    21    24    1
    14    24    25    1
    15    25    26    1
    16    26    27    1
    17    27    28    1
    18    28    29    1
    19    29    30    1
    20    21    22    1
    21    22    23    1
    22     4     5    1
    23     5     6    2
    24     6     7    1
    25     7     8    1
    26     8     9    2
    27    14    15   ar
    28    15    16   ar
    29    16    17    1
    30    16    11   ar
    31     9     1    1
    32     8     3    1
    33    23    18    1
    34    30    25    1
@<TRIPOS>MOLECULE
*****
 30 34 0 0 0
SMALL
GASTEIGER

@<TRIPOS>ATOM
      1 C         142.8773  136.6255  157.0668 C.2     1  UNL1        0.3756
      2 N         142.8699  137.2452  158.4328 N.2     1  UNL1       -0.0230
      3 C         142.9823  138.7319  158.2679 C.2     1  UNL1        0.3133
      4 C         143.0246  139.8519  159.2648 C.2     1  UNL1        0.3703
      5 N         143.1437  141.2711  158.7939 N.2     1  UNL1       -0.0367
      6 C         143.2205  141.5702  157.3261 C.2     1  UNL1        0.2179
      7 C         143.1782  140.4502  156.3292 C.3     1  UNL1        0.1552
      8 C         143.0591  139.0311  156.8001 C.2     1  UNL1        0.2294
      9 N         142.9942  137.7293  156.0578 N.2     1  UNL1       -0.0343
     10 F         142.5046  130.7616  155.8522 F       1  UNL1       -0.2018
     11 C         142.5978  132.2276  156.1559 C.ar    1  UNL1        0.1674
     12 C         141.7386  133.2043  155.4090 C.ar    1  UNL1        0.0322
     13 C         141.8318  134.6703  155.7126 C.ar    1  UNL1        0.0101
     14 C         142.7841  135.1595  156.7632 C.ar    1  UNL1        0.0908
     15 C         143.6432  134.1828  157.5101 C.ar    1  UNL1        0.0396
     16 C         143.5501  132.7168  157.2064 C.ar    1  UNL1        0.1676
     17 F         144.4092  131.7401  157.9533 F       1  UNL1       -0.2018
     18 N         142.9477  139.5528  160.7327 N.pl3   1  UNL1       -0.1872
     19 C         144.2047  139.3202  161.5176 C.3     1  UNL1        0.2025
     20 C         144.1278  139.0211  162.9855 C.3     1  UNL1        0.0523
     21 C         142.7940  138.9544  163.6685 C.3     1  UNL1        0.0242
     22 C         141.5370  139.1869  162.8836 C.3     1  UNL1        0.0523
     23 C         141.6139  139.4861  161.4157 C.3     1  UNL1        0.2025
     24 C         142.7171  138.6552  165.1363 C.3     1  UNL1        0.0725
     25 N         142.7993  139.7718  166.1345 N.3     1  UNL1       -0.2685
     26 C         142.6092  139.4876  167.5950 C.3     1  UNL1        0.1046
     27 C         142.6914  140.6042  168.5933 C.3     1  UNL1        0.1595
     28 O         142.9637  142.0049  168.1311 O.3     1  UNL1       -0.3508
     29 C         143.1538  142.2891  166.6705 C.3     1  UNL1        0.1595
     30 C         143.0716  141.1726  165.6723 C.3     1  UNL1        0.1046
@<TRIPOS>BOND
     1    10    11    1
     2    11    12   ar
     3    12    13   ar
     4    13    14   ar
     5    14     1    1
     6     1     2    2
     7     2     3    1
     8     3     4    2
     9     4    18    1
    10    18    19    1
    11    19    20    1
    12    20    21    1
    13    21    24    1
    14    24    25    1
    15    25    26    1
    16    26    27    1
    17    27    28    1
    18    28    29    1
    19    29    30    1
    20    21    22    1
    21    22    23    1
    22     4     5    1
    23     5     6    2
    24     6     7    1
    25     7     8    1
    26     8     9    2
    27    14    15   ar
    28    15    16   ar
    29    16    17    1
    30    16    11   ar
    31     9     1    1
    32     8     3    1
    33    23    18    1
    34    30    25    1
