@<TRIPOS>MOLECULE
*****
 20 21 0 0 0
SMALL
GASTEIGER

@<TRIPOS>ATOM
      1 C         141.5091  144.1773  163.6266 C.ar    1  UNL1        0.0282
      2 C         142.7444  144.8972  163.1731 C.ar    1  UNL1        0.0010
      3 C         144.0862  144.2393  163.3029 C.ar    1  UNL1        0.0113
      4 C         144.1927  142.8615  163.8861 C.ar    1  UNL1        0.0607
      5 CL        145.5344  142.2036  164.0158 Cl      1  UNL1       -0.0821
      6 C         142.9574  142.1415  164.3395 C.ar    1  UNL1        0.0486
      7 C         141.6156  142.7994  164.2098 C.ar    1  UNL1        0.1434
      8 C         140.1673  144.8352  163.4969 C.3     1  UNL1        0.0987
      9 C         137.9705  144.4794  164.8375 C.3     1  UNL1        0.0861
     10 N         139.3356  145.0898  164.7188 N.3     1  UNL1       -0.2925
     11 H         139.8766  144.7585  165.5176 H       1  UNL1        0.1236
     12 O         140.3803  142.0794  164.6633 O.3     1  UNL1       -0.4538
     13 C         140.2072  141.7255  166.1106 C.ar    1  UNL1        0.1450
     14 C         139.7108  140.3632  166.4954 C.ar    1  UNL1        0.0383
     15 C         139.5377  140.0092  167.9427 C.ar    1  UNL1        0.0142
     16 C         139.8609  141.0175  169.0052 C.ar    1  UNL1        0.0539
     17 CL        139.6878  140.6635  170.4525 Cl      1  UNL1       -0.0826
     18 C         140.3572  142.3797  168.6205 C.ar    1  UNL1       -0.0082
     19 C         140.6804  143.3879  169.6830 C.3     1  UNL1        0.0320
     20 C         140.5304  142.7337  167.1731 C.ar    1  UNL1        0.0341
@<TRIPOS>BOND
     1     9    10    1
     2    10     8    1
     3     8     1    1
     4     1     2   ar
     5     2     3   ar
     6     3     4   ar
     7     4     5    1
     8     4     6   ar
     9     6     7   ar
    10     7    12    1
    11    12    13    1
    12    13    14   ar
    13    14    15   ar
    14    15    16   ar
    15    16    17    1
    16    16    18   ar
    17    18    19    1
    18    18    20   ar
    19     7     1   ar
    20    20    13   ar
    21    10    11    1
@<TRIPOS>MOLECULE
*****
 20 21 0 0 0
SMALL
GASTEIGER

@<TRIPOS>ATOM
      1 C         138.1477  139.7592  162.7609 C.ar    1  UNL1        0.0282
      2 C         137.9878  140.7249  161.6243 C.ar    1  UNL1        0.0010
      3 C         137.8532  142.1931  161.9009 C.ar    1  UNL1        0.0113
      4 C         137.8784  142.6955  163.3140 C.ar    1  UNL1        0.0607
      5 CL        137.7438  144.1636  163.5905 Cl      1  UNL1       -0.0821
      6 C         138.0383  141.7298  164.4505 C.ar    1  UNL1        0.0486
      7 C         138.1729  140.2617  164.1740 C.ar    1  UNL1        0.1434
      8 C         138.2824  138.2911  162.4844 C.3     1  UNL1        0.0987
      9 C         140.8198  137.7331  162.4979 C.3     1  UNL1        0.0861
     10 N         139.4408  137.5245  163.0502 N.3     1  UNL1       -0.2925
     11 H         139.4848  137.7486  164.0443 H       1  UNL1        0.1236
     12 O         138.3328  139.2960  165.3107 O.3     1  UNL1       -0.4538
     13 C         139.4259  139.4975  166.3179 C.ar    1  UNL1        0.1450
     14 C         140.8620  139.3978  165.8963 C.ar    1  UNL1        0.0383
     15 C         141.9551  139.5993  166.9035 C.ar    1  UNL1        0.0142
     16 C         141.6121  139.9005  168.3323 C.ar    1  UNL1        0.0539
     17 CL        142.7052  140.1019  169.3395 Cl      1  UNL1       -0.0826
     18 C         140.1761  140.0002  168.7540 C.ar    1  UNL1       -0.0082
     19 C         139.8331  140.3014  170.1829 C.3     1  UNL1        0.0320
     20 C         139.0829  139.7987  167.7468 C.ar    1  UNL1        0.0341
@<TRIPOS>BOND
     1     9    10    1
     2    10     8    1
     3     8     1    1
     4     1     2   ar
     5     2     3   ar
     6     3     4   ar
     7     4     5    1
     8     4     6   ar
     9     6     7   ar
    10     7    12    1
    11    12    13    1
    12    13    14   ar
    13    14    15   ar
    14    15    16   ar
    15    16    17    1
    16    16    18   ar
    17    18    19    1
    18    18    20   ar
    19     7     1   ar
    20    20    13   ar
    21    10    11    1
@<TRIPOS>MOLECULE
*****
 20 21 0 0 0
SMALL
GASTEIGER

@<TRIPOS>ATOM
      1 C         139.3303  143.7343  164.1162 C.ar    1  UNL1        0.0282
      2 C         139.6454  145.0038  163.3820 C.ar    1  UNL1        0.0010
      3 C         141.0722  145.3799  163.1122 C.ar    1  UNL1        0.0113
      4 C         142.1839  144.4865  163.5768 C.ar    1  UNL1        0.0607
      5 CL        143.6108  144.8625  163.3070 Cl      1  UNL1       -0.0821
      6 C         141.8689  143.2170  164.3110 C.ar    1  UNL1        0.0486
      7 C         140.4421  142.8410  164.5808 C.ar    1  UNL1        0.1434
      8 C         137.9035  143.3583  164.3860 C.3     1  UNL1        0.0987
      9 C         137.4214  141.2692  162.9186 C.3     1  UNL1        0.0861
     10 N         137.4693  141.9276  164.2655 N.3     1  UNL1       -0.2925
     11 H         138.1075  141.3769  164.8399 H       1  UNL1        0.1236
     12 O         140.1270  141.5714  165.3151 O.3     1  UNL1       -0.4538
     13 C         140.2894  141.5067  166.8048 C.ar    1  UNL1        0.1450
     14 C         140.4064  140.1771  167.4894 C.ar    1  UNL1        0.0383
     15 C         140.5688  140.1123  168.9792 C.ar    1  UNL1        0.0142
     16 C         140.6141  141.3770  169.7844 C.ar    1  UNL1        0.0539
     17 CL        140.7765  141.3122  171.2741 Cl      1  UNL1       -0.0826
     18 C         140.4971  142.7066  169.0999 C.ar    1  UNL1       -0.0082
     19 C         140.5425  143.9713  169.9051 C.3     1  UNL1        0.0320
     20 C         140.3347  142.7714  167.6100 C.ar    1  UNL1        0.0341
@<TRIPOS>BOND
     1     9    10    1
     2    10     8    1
     3     8     1    1
     4     1     2   ar
     5     2     3   ar
     6     3     4   ar
     7     4     5    1
     8     4     6   ar
     9     6     7   ar
    10     7    12    1
    11    12    13    1
    12    13    14   ar
    13    14    15   ar
    14    15    16   ar
    15    16    17    1
    16    16    18   ar
    17    18    19    1
    18    18    20   ar
    19     7     1   ar
    20    20    13   ar
    21    10    11    1
@<TRIPOS>MOLECULE
*****
 20 21 0 0 0
SMALL
GASTEIGER

@<TRIPOS>ATOM
      1 C         140.4555  140.3937  167.1657 C.ar    1  UNL1        0.0282
      2 C         139.6032  139.9185  168.3049 C.ar    1  UNL1        0.0010
      3 C         139.3782  140.8049  169.4939 C.ar    1  UNL1        0.0113
      4 C         140.0056  142.1665  169.5437 C.ar    1  UNL1        0.0607
      5 CL        139.7806  143.0529  170.7327 Cl      1  UNL1       -0.0821
      6 C         140.8579  142.6416  168.4045 C.ar    1  UNL1        0.0486
      7 C         141.0829  141.7552  167.2156 C.ar    1  UNL1        0.1434
      8 C         140.6805  139.5072  165.9768 C.3     1  UNL1        0.0987
      9 C         143.1335  138.6727  166.1674 C.3     1  UNL1        0.0861
     10 N         142.0552  139.3706  165.3926 N.3     1  UNL1       -0.2925
     11 H         141.9521  138.8664  164.5119 H       1  UNL1        0.1236
     12 O         141.9353  142.2304  166.0764 O.3     1  UNL1       -0.4538
     13 C         141.3749  143.1917  165.0705 C.ar    1  UNL1        0.1450
     14 C         142.2923  144.1093  164.3179 C.ar    1  UNL1        0.0383
     15 C         141.7320  145.0706  163.3120 C.ar    1  UNL1        0.0142
     16 C         140.2542  145.1143  163.0586 C.ar    1  UNL1        0.0539
     17 CL        139.6938  146.0756  162.0527 Cl      1  UNL1       -0.0826
     18 C         139.3367  144.1967  163.8112 C.ar    1  UNL1       -0.0082
     19 C         137.8589  144.2404  163.5578 C.3     1  UNL1        0.0320
     20 C         139.8971  143.2354  164.8171 C.ar    1  UNL1        0.0341
@<TRIPOS>BOND
     1     9    10    1
     2    10     8    1
     3     8     1    1
     4     1     2   ar
     5     2     3   ar
     6     3     4   ar
     7     4     5    1
     8     4     6   ar
     9     6     7   ar
    10     7    12    1
    11    12    13    1
    12    13    14   ar
    13    14    15   ar
    14    15    16   ar
    15    16    17    1
    16    16    18   ar
    17    18    19    1
    18    18    20   ar
    19     7     1   ar
    20    20    13   ar
    21    10    11    1
@<TRIPOS>MOLECULE
*****
 20 21 0 0 0
SMALL
GASTEIGER

@<TRIPOS>ATOM
      1 C         138.7312  139.0877  165.7366 C.ar    1  UNL1        0.0282
      2 C         138.8839  137.7015  165.1843 C.ar    1  UNL1        0.0010
      3 C         138.9323  137.4865  163.7005 C.ar    1  UNL1        0.0113
      4 C         138.8280  138.6576  162.7692 C.ar    1  UNL1        0.0607
      5 CL        138.8764  138.4426  161.2855 Cl      1  UNL1       -0.0821
      6 C         138.6753  140.0438  163.3216 C.ar    1  UNL1        0.0486
      7 C         138.6269  140.2588  164.8053 C.ar    1  UNL1        0.1434
      8 C         138.6828  139.3027  167.2203 C.3     1  UNL1        0.0987
      9 C         139.9049  140.2314  169.3165 C.3     1  UNL1        0.0861
     10 N         139.5679  140.3320  167.8583 N.3     1  UNL1       -0.2925
     11 H         140.4521  140.3158  167.3500 H       1  UNL1        0.1236
     12 O         138.4742  141.6451  165.3576 O.3     1  UNL1       -0.4538
     13 C         138.8094  142.8331  164.5055 C.ar    1  UNL1        0.1450
     14 C         137.7651  143.4335  163.6116 C.ar    1  UNL1        0.0383
     15 C         138.1002  144.6216  162.7594 C.ar    1  UNL1        0.0142
     16 C         139.4797  145.2092  162.8011 C.ar    1  UNL1        0.0539
     17 CL        139.8149  146.3972  161.9489 Cl      1  UNL1       -0.0826
     18 C         140.5240  144.6088  163.6949 C.ar    1  UNL1       -0.0082
     19 C         141.9035  145.1965  163.7366 C.3     1  UNL1        0.0320
     20 C         140.1888  143.4207  164.5471 C.ar    1  UNL1        0.0341
@<TRIPOS>BOND
     1     9    10    1
     2    10     8    1
     3     8     1    1
     4     1     2   ar
     5     2     3   ar
     6     3     4   ar
     7     4     5    1
     8     4     6   ar
     9     6     7   ar
    10     7    12    1
    11    12    13    1
    12    13    14   ar
    13    14    15   ar
    14    15    16   ar
    15    16    17    1
    16    16    18   ar
    17    18    19    1
    18    18    20   ar
    19     7     1   ar
    20    20    13   ar
    21    10    11    1
@<TRIPOS>MOLECULE
*****
 20 21 0 0 0
SMALL
GASTEIGER

@<TRIPOS>ATOM
      1 C         139.5879  139.9117  167.7333 C.ar    1  UNL1        0.0282
      2 C         138.2993  139.1860  167.4825 C.ar    1  UNL1        0.0010
      3 C         138.0890  138.4563  166.1890 C.ar    1  UNL1        0.0113
      4 C         139.1672  138.4522  165.1462 C.ar    1  UNL1        0.0607
      5 CL        138.9568  137.7224  163.8527 Cl      1  UNL1       -0.0821
      6 C         140.4558  139.1778  165.3970 C.ar    1  UNL1        0.0486
      7 C         140.6661  139.9076  166.6906 C.ar    1  UNL1        0.1434
      8 C         139.7983  140.6414  169.0268 C.3     1  UNL1        0.0987
      9 C         140.0392  142.9415  170.2107 C.3     1  UNL1        0.0861
     10 N         140.2731  142.0642  169.0167 N.3     1  UNL1       -0.2925
     11 H         141.2813  142.0371  168.8642 H       1  UNL1        0.1236
     12 O         141.9548  140.6333  166.9413 O.3     1  UNL1       -0.4538
     13 C         142.5344  141.5209  165.8802 C.ar    1  UNL1        0.1450
     14 C         141.8024  142.7598  165.4564 C.ar    1  UNL1        0.0383
     15 C         142.3820  143.6474  164.3953 C.ar    1  UNL1        0.0142
     16 C         143.6937  143.2964  163.7579 C.ar    1  UNL1        0.0539
     17 CL        144.2733  144.1840  162.6968 Cl      1  UNL1       -0.0826
     18 C         144.4257  142.0576  164.1816 C.ar    1  UNL1       -0.0082
     19 C         145.7374  141.7065  163.5442 C.3     1  UNL1        0.0320
     20 C         143.8461  141.1699  165.2428 C.ar    1  UNL1        0.0341
@<TRIPOS>BOND
     1     9    10    1
     2    10     8    1
     3     8     1    1
     4     1     2   ar
     5     2     3   ar
     6     3     4   ar
     7     4     5    1
     8     4     6   ar
     9     6     7   ar
    10     7    12    1
    11    12    13    1
    12    13    14   ar
    13    14    15   ar
    14    15    16   ar
    15    16    17    1
    16    16    18   ar
    17    18    19    1
    18    18    20   ar
    19     7     1   ar
    20    20    13   ar
    21    10    11    1
@<TRIPOS>MOLECULE
*****
 20 21 0 0 0
SMALL
GASTEIGER

@<TRIPOS>ATOM
      1 C         139.5264  140.3671  167.6497 C.ar    1  UNL1        0.0282
      2 C         139.3004  140.3864  169.1324 C.ar    1  UNL1        0.0010
      3 C         139.7027  141.5868  169.9368 C.ar    1  UNL1        0.0113
      4 C         140.3310  142.7680  169.2585 C.ar    1  UNL1        0.0607
      5 CL        140.7333  143.9684  170.0629 Cl      1  UNL1       -0.0821
      6 C         140.5570  142.7486  167.7758 C.ar    1  UNL1        0.0486
      7 C         140.1547  141.5482  166.9714 C.ar    1  UNL1        0.1434
      8 C         139.1241  139.1666  166.8453 C.3     1  UNL1        0.0987
      9 C         138.7510  138.5654  164.3454 C.3     1  UNL1        0.0861
     10 N         138.3589  139.3423  165.5672 N.3     1  UNL1       -0.2925
     11 H         137.3884  139.1026  165.7697 H       1  UNL1        0.1236
     12 O         140.3806  141.5289  165.4886 O.3     1  UNL1       -0.4538
     13 C         141.7761  141.5882  164.9418 C.ar    1  UNL1        0.1450
     14 C         142.7041  140.4242  165.1265 C.ar    1  UNL1        0.0383
     15 C         144.0996  140.4835  164.5797 C.ar    1  UNL1        0.0142
     16 C         144.5672  141.7066  163.8481 C.ar    1  UNL1        0.0539
     17 CL        145.9627  141.7659  163.3013 Cl      1  UNL1       -0.0826
     18 C         143.6393  142.8705  163.6633 C.ar    1  UNL1       -0.0082
     19 C         144.1069  144.0937  162.9317 C.3     1  UNL1        0.0320
     20 C         142.2437  142.8113  164.2102 C.ar    1  UNL1        0.0341
@<TRIPOS>BOND
     1     9    10    1
     2    10     8    1
     3     8     1    1
     4     1     2   ar
     5     2     3   ar
     6     3     4   ar
     7     4     5    1
     8     4     6   ar
     9     6     7   ar
    10     7    12    1
    11    12    13    1
    12    13    14   ar
    13    14    15   ar
    14    15    16   ar
    15    16    17    1
    16    16    18   ar
    17    18    19    1
    18    18    20   ar
    19     7     1   ar
    20    20    13   ar
    21    10    11    1
@<TRIPOS>MOLECULE
*****
 20 21 0 0 0
SMALL
GASTEIGER

@<TRIPOS>ATOM
      1 C         143.1083  143.8698  164.3913 C.ar    1  UNL1        0.0282
      2 C         142.8685  145.1400  163.6304 C.ar    1  UNL1        0.0010
      3 C         141.4768  145.5129  163.2129 C.ar    1  UNL1        0.0113
      4 C         140.3250  144.6155  163.5562 C.ar    1  UNL1        0.0607
      5 CL        138.9334  144.9883  163.1387 Cl      1  UNL1       -0.0821
      6 C         140.5648  143.3453  164.3171 C.ar    1  UNL1        0.0486
      7 C         141.9565  142.9724  164.7346 C.ar    1  UNL1        0.1434
      8 C         144.5000  143.4970  164.8088 C.3     1  UNL1        0.0987
      9 C         145.4968  141.8425  163.0713 C.3     1  UNL1        0.0861
     10 N         145.0468  142.1418  164.4705 N.3     1  UNL1       -0.2925
     11 H         145.8519  141.9892  165.0778 H       1  UNL1        0.1236
     12 O         142.1963  141.7021  165.4955 O.3     1  UNL1       -0.4538
     13 C         141.9706  141.6618  166.9779 C.ar    1  UNL1        0.1450
     14 C         143.0033  142.2241  167.9093 C.ar    1  UNL1        0.0383
     15 C         142.7776  142.1838  169.3917 C.ar    1  UNL1        0.0142
     16 C         141.5193  141.5813  169.9427 C.ar    1  UNL1        0.0539
     17 CL        141.2937  141.5410  171.4250 Cl      1  UNL1       -0.0826
     18 C         140.4867  141.0190  169.0113 C.ar    1  UNL1       -0.0082
     19 C         139.2284  140.4164  169.5623 C.3     1  UNL1        0.0320
     20 C         140.7123  141.0593  167.5289 C.ar    1  UNL1        0.0341
@<TRIPOS>BOND
     1     9    10    1
     2    10     8    1
     3     8     1    1
     4     1     2   ar
     5     2     3   ar
     6     3     4   ar
     7     4     5    1
     8     4     6   ar
     9     6     7   ar
    10     7    12    1
    11    12    13    1
    12    13    14   ar
    13    14    15   ar
    14    15    16   ar
    15    16    17    1
    16    16    18   ar
    17    18    19    1
    18    18    20   ar
    19     7     1   ar
    20    20    13   ar
    21    10    11    1
@<TRIPOS>MOLECULE
*****
 20 21 0 0 0
SMALL
GASTEIGER

@<TRIPOS>ATOM
      1 C         141.2692  140.2573  166.9040 C.ar    1  UNL1        0.0282
      2 C         142.4104  140.0226  167.8488 C.ar    1  UNL1        0.0010
      3 C         142.7150  141.0264  168.9209 C.ar    1  UNL1        0.0113
      4 C         141.8785  142.2650  169.0483 C.ar    1  UNL1        0.0607
      5 CL        142.1832  143.2688  170.1204 Cl      1  UNL1       -0.0821
      6 C         140.7374  142.4996  168.1035 C.ar    1  UNL1        0.0486
      7 C         140.4327  141.4958  167.0314 C.ar    1  UNL1        0.1434
      8 C         140.9646  139.2534  165.8319 C.3     1  UNL1        0.0987
      9 C         138.9782  138.7246  164.2430 C.3     1  UNL1        0.0861
     10 N         139.5562  138.7800  165.6260 N.3     1  UNL1       -0.2925
     11 H         139.5052  137.8342  166.0046 H       1  UNL1        0.1236
     12 O         139.2915  141.7305  166.0866 O.3     1  UNL1       -0.4538
     13 C         139.3669  142.8405  165.0805 C.ar    1  UNL1        0.1450
     14 C         138.1350  143.2632  164.3363 C.ar    1  UNL1        0.0383
     15 C         138.2104  144.3732  163.3302 C.ar    1  UNL1        0.0142
     16 C         139.5177  145.0605  163.0683 C.ar    1  UNL1        0.0539
     17 CL        139.5931  146.1704  162.0622 Cl      1  UNL1       -0.0826
     18 C         140.7496  144.6378  163.8124 C.ar    1  UNL1       -0.0082
     19 C         142.0569  145.3251  163.5504 C.3     1  UNL1        0.0320
     20 C         140.6742  143.5278  164.8185 C.ar    1  UNL1        0.0341
@<TRIPOS>BOND
     1     9    10    1
     2    10     8    1
     3     8     1    1
     4     1     2   ar
     5     2     3   ar
     6     3     4   ar
     7     4     5    1
     8     4     6   ar
     9     6     7   ar
    10     7    12    1
    11    12    13    1
    12    13    14   ar
    13    14    15   ar
    14    15    16   ar
    15    16    17    1
    16    16    18   ar
    17    18    19    1
    18    18    20   ar
    19     7     1   ar
    20    20    13   ar
    21    10    11    1
