@<TRIPOS>MOLECULE
*****
 28 31 0 0 0
SMALL
GASTEIGER

@<TRIPOS>ATOM
      1 C         138.5415  138.7567  162.7373 C.ar    1  UNL1       -0.0059
      2 C         138.1047  140.0422  163.3750 C.ar    1  UNL1        0.0002
      3 C         138.0845  140.1691  164.8695 C.ar    1  UNL1        0.0373
      4 C         138.5011  139.0105  165.7263 C.ar    1  UNL1        0.1477
      5 C         138.9379  137.7250  165.0886 C.ar    1  UNL1        0.0373
      6 C         138.9581  137.5981  163.5941 C.ar    1  UNL1        0.0002
      7 C         138.5617  138.6297  161.2428 C.3     1  UNL1        0.0992
      8 C         139.8401  142.1192  158.7053 C.3     1  UNL1        0.0743
      9 C         138.4083  141.6720  158.6991 C.3     1  UNL1        0.0369
     10 C         137.9822  140.5089  159.5449 C.3     1  UNL1        0.0741
     11 N         138.9878  139.7929  160.3970 N.3     1  UNL1       -0.2689
     12 C         140.4196  140.2400  160.4032 C.3     1  UNL1        0.0741
     13 C         140.8458  141.4032  159.5574 C.3     1  UNL1        0.0369
     14 C         140.6372  145.8375  157.5700 C.3     1  UNL1        0.0946
     15 C         140.2111  144.6743  158.4158 C.2     1  UNL1        0.2229
     16 O         139.7298  144.9031  159.8179 O.2     1  UNL1       -0.2751
     17 N         140.2663  143.2824  157.8595 N.am    1  UNL1       -0.3059
     18 H         140.5822  143.1322  156.9392 H       1  UNL1        0.1494
     19 O         138.4809  139.1375  167.2208 O.3     1  UNL1       -0.4313
     20 C         139.5375  139.9407  167.9196 C.ar    1  UNL1        0.2628
     21 N         139.3836  140.6454  169.2348 N.ar    1  UNL1       -0.2050
     22 C         140.6845  141.3204  169.5540 C.ar    1  UNL1        0.0910
     23 C         141.1206  142.1598  170.7182 C.ar    1  UNL1        0.0197
     24 C         142.5146  142.7116  170.7644 C.ar    1  UNL1        0.0016
     25 C         143.4725  142.4241  169.6465 C.ar    1  UNL1        0.0006
     26 C         143.0364  141.5848  168.4824 C.ar    1  UNL1        0.0081
     27 C         141.6424  141.0330  168.4361 C.ar    1  UNL1        0.0515
     28 S         140.9335  140.1802  167.4260 S.2     1  UNL1       -0.0283
@<TRIPOS>BOND
     1    14    15    1
     2    15    16    2
     3    15    17   am
     4    17     8    1
     5     8     9    1
     6     9    10    1
     7    10    11    1
     8    11     7    1
     9     7     1    1
    10     1     2   ar
    11     2     3   ar
    12     3     4   ar
    13     4    19    1
    14    19    20    1
    15    20    21   ar
    16    21    22   ar
    17    22    23   ar
    18    23    24   ar
    19    24    25   ar
    20    25    26   ar
    21    26    27   ar
    22    27    28   ar
    23     4     5   ar
    24     5     6   ar
    25    11    12    1
    26    12    13    1
    27    13     8    1
    28     6     1   ar
    29    28    20   ar
    30    27    22   ar
    31    17    18    1
@<TRIPOS>MOLECULE
*****
 28 31 0 0 0
SMALL
GASTEIGER

@<TRIPOS>ATOM
      1 C         138.5518  138.6386  162.7429 C.ar    1  UNL1       -0.0059
      2 C         138.1545  139.9577  163.3363 C.ar    1  UNL1        0.0002
      3 C         138.1341  140.1344  164.8258 C.ar    1  UNL1        0.0373
      4 C         138.5110  138.9920  165.7218 C.ar    1  UNL1        0.1477
      5 C         138.9082  137.6728  165.1283 C.ar    1  UNL1        0.0373
      6 C         138.9286  137.4962  163.6389 C.ar    1  UNL1        0.0002
      7 C         138.5722  138.4619  161.2534 C.3     1  UNL1        0.0992
      8 C         142.3923  139.1042  158.9635 C.3     1  UNL1        0.0743
      9 C         142.3774  139.2580  160.4556 C.3     1  UNL1        0.0369
     10 C         141.1040  139.0439  161.2189 C.3     1  UNL1        0.0741
     11 N         139.8456  138.6760  160.4902 N.3     1  UNL1       -0.2689
     12 C         139.8605  138.5223  158.9982 C.3     1  UNL1        0.0741
     13 C         141.1339  138.7364  158.2348 C.3     1  UNL1        0.0369
     14 C         145.2383  140.8751  156.8389 C.3     1  UNL1        0.0946
     15 C         143.9649  140.6610  157.6022 C.2     1  UNL1        0.2229
     16 O         142.9908  141.7896  157.7674 O.2     1  UNL1       -0.2751
     17 N         143.6657  139.3183  158.2003 N.am    1  UNL1       -0.3059
     18 H         144.3051  138.5776  158.0918 H       1  UNL1        0.1494
     19 O         138.4906  139.1686  167.2112 O.3     1  UNL1       -0.4313
     20 C         139.5606  139.9750  167.8855 C.ar    1  UNL1        0.2628
     21 N         139.4366  140.6751  169.2063 N.ar    1  UNL1       -0.2050
     22 C         140.7419  141.3557  169.4946 C.ar    1  UNL1        0.0910
     23 C         141.2032  142.1938  170.6499 C.ar    1  UNL1        0.0197
     24 C         142.5952  142.7523  170.6625 C.ar    1  UNL1        0.0016
     25 C         143.5260  142.4728  169.5200 C.ar    1  UNL1        0.0006
     26 C         143.0647  141.6346  168.3647 C.ar    1  UNL1        0.0081
     27 C         141.6727  141.0761  168.3520 C.ar    1  UNL1        0.0515
     28 S         140.9426  140.2228  167.3576 S.2     1  UNL1       -0.0283
@<TRIPOS>BOND
     1    14    15    1
     2    15    16    2
     3    15    17   am
     4    17     8    1
     5     8     9    1
     6     9    10    1
     7    10    11    1
     8    11     7    1
     9     7     1    1
    10     1     2   ar
    11     2     3   ar
    12     3     4   ar
    13     4    19    1
    14    19    20    1
    15    20    21   ar
    16    21    22   ar
    17    22    23   ar
    18    23    24   ar
    19    24    25   ar
    20    25    26   ar
    21    26    27   ar
    22    27    28   ar
    23     4     5   ar
    24     5     6   ar
    25    11    12    1
    26    12    13    1
    27    13     8    1
    28     6     1   ar
    29    28    20   ar
    30    27    22   ar
    31    17    18    1
@<TRIPOS>MOLECULE
*****
 28 31 0 0 0
SMALL
GASTEIGER

@<TRIPOS>ATOM
      1 C         143.8460  139.1602  162.4570 C.ar    1  UNL1       -0.0059
      2 C         144.2219  140.1058  161.3551 C.ar    1  UNL1        0.0002
      3 C         143.5470  140.0070  160.0191 C.ar    1  UNL1        0.0373
      4 C         142.4962  138.9626  159.7851 C.ar    1  UNL1        0.1477
      5 C         142.1202  138.0169  160.8872 C.ar    1  UNL1        0.0373
      6 C         142.7951  138.1157  162.2231 C.ar    1  UNL1        0.0002
      7 C         144.5209  139.2589  163.7931 C.3     1  UNL1        0.0992
      8 C         142.1026  140.1900  167.4721 C.3     1  UNL1        0.0743
      9 C         142.8816  138.9107  167.3904 C.3     1  UNL1        0.0369
     10 C         143.6877  138.6004  166.1641 C.3     1  UNL1        0.0741
     11 N         143.7148  139.5693  165.0194 N.3     1  UNL1       -0.2689
     12 C         142.9359  140.8486  165.1010 C.3     1  UNL1        0.0741
     13 C         142.1298  141.1590  166.3273 C.3     1  UNL1        0.0369
     14 C         139.0222  140.5055  169.9542 C.3     1  UNL1        0.0946
     15 C         139.8283  140.1952  168.7279 C.2     1  UNL1        0.2229
     16 O         139.1660  139.5796  167.5311 O.2     1  UNL1       -0.2751
     17 N         141.2966  140.5004  168.6984 N.am    1  UNL1       -0.3059
     18 H         141.7313  140.9044  169.4839 H       1  UNL1        0.1494
     19 O         141.8213  138.8638  158.4492 O.3     1  UNL1       -0.4313
     20 C         141.9937  137.6317  157.6111 C.ar    1  UNL1        0.2628
     21 N         143.1169  136.6432  157.7173 N.ar    1  UNL1       -0.2050
     22 C         142.8906  135.5725  156.6915 C.ar    1  UNL1        0.0910
     23 C         143.6715  134.3422  156.3358 C.ar    1  UNL1        0.0197
     24 C         143.1893  133.4386  155.2399 C.ar    1  UNL1        0.0016
     25 C         141.9263  133.7654  154.4996 C.ar    1  UNL1        0.0006
     26 C         141.1454  134.9957  154.8553 C.ar    1  UNL1        0.0081
     27 C         141.6276  135.8992  155.9512 C.ar    1  UNL1        0.0515
     28 S         141.0733  137.1719  156.5196 S.2     1  UNL1       -0.0283
@<TRIPOS>BOND
     1    14    15    1
     2    15    16    2
     3    15    17   am
     4    17     8    1
     5     8     9    1
     6     9    10    1
     7    10    11    1
     8    11     7    1
     9     7     1    1
    10     1     2   ar
    11     2     3   ar
    12     3     4   ar
    13     4    19    1
    14    19    20    1
    15    20    21   ar
    16    21    22   ar
    17    22    23   ar
    18    23    24   ar
    19    24    25   ar
    20    25    26   ar
    21    26    27   ar
    22    27    28   ar
    23     4     5   ar
    24     5     6   ar
    25    11    12    1
    26    12    13    1
    27    13     8    1
    28     6     1   ar
    29    28    20   ar
    30    27    22   ar
    31    17    18    1
@<TRIPOS>MOLECULE
*****
 28 31 0 0 0
SMALL
GASTEIGER

@<TRIPOS>ATOM
      1 C         143.8251  139.3879  162.2704 C.ar    1  UNL1       -0.0059
      2 C         142.6936  138.5344  162.7616 C.ar    1  UNL1        0.0002
      3 C         142.5712  138.2198  164.2232 C.ar    1  UNL1        0.0373
      4 C         143.5802  138.7586  165.1935 C.ar    1  UNL1        0.1477
      5 C         144.7117  139.6121  164.7022 C.ar    1  UNL1        0.0373
      6 C         144.8341  139.9268  163.2407 C.ar    1  UNL1        0.0002
      7 C         143.9475  139.7026  160.8089 C.3     1  UNL1        0.0992
      8 C         142.4524  143.6391  159.2218 C.3     1  UNL1        0.0743
      9 C         141.9109  143.0957  160.5109 C.3     1  UNL1        0.0369
     10 C         142.4092  141.7835  161.0399 C.3     1  UNL1        0.0741
     11 N         143.4492  141.0147  160.2799 N.3     1  UNL1       -0.2689
     12 C         143.9907  141.5581  158.9909 C.3     1  UNL1        0.0741
     13 C         143.4923  142.8703  158.4619 C.3     1  UNL1        0.0369
     14 C         140.2002  146.3136  157.3446 C.3     1  UNL1        0.0946
     15 C         140.6985  145.0015  157.8736 C.2     1  UNL1        0.2229
     16 O         139.9414  143.7396  157.5834 O.2     1  UNL1       -0.2751
     17 N         141.9541  144.9512  158.6928 N.am    1  UNL1       -0.3059
     18 H         142.4510  145.7795  158.8833 H       1  UNL1        0.1494
     19 O         143.4578  138.4440  166.6550 O.3     1  UNL1       -0.4313
     20 C         142.7573  139.4020  167.5723 C.ar    1  UNL1        0.2628
     21 N         142.7196  139.3212  169.0696 N.ar    1  UNL1       -0.2050
     22 C         141.9105  140.4782  169.5761 C.ar    1  UNL1        0.0910
     23 C         141.5350  140.9099  170.9627 C.ar    1  UNL1        0.0197
     24 C         140.6971  142.1374  171.1650 C.ar    1  UNL1        0.0016
     25 C         140.2347  142.9334  169.9806 C.ar    1  UNL1        0.0006
     26 C         140.6101  142.5017  168.5940 C.ar    1  UNL1        0.0081
     27 C         141.4480  141.2741  168.3918 C.ar    1  UNL1        0.0515
     28 S         141.9714  140.6090  167.1534 S.2     1  UNL1       -0.0283
@<TRIPOS>BOND
     1    14    15    1
     2    15    16    2
     3    15    17   am
     4    17     8    1
     5     8     9    1
     6     9    10    1
     7    10    11    1
     8    11     7    1
     9     7     1    1
    10     1     2   ar
    11     2     3   ar
    12     3     4   ar
    13     4    19    1
    14    19    20    1
    15    20    21   ar
    16    21    22   ar
    17    22    23   ar
    18    23    24   ar
    19    24    25   ar
    20    25    26   ar
    21    26    27   ar
    22    27    28   ar
    23     4     5   ar
    24     5     6   ar
    25    11    12    1
    26    12    13    1
    27    13     8    1
    28     6     1   ar
    29    28    20   ar
    30    27    22   ar
    31    17    18    1
@<TRIPOS>MOLECULE
*****
 28 31 0 0 0
SMALL
GASTEIGER

@<TRIPOS>ATOM
      1 C         142.1217  136.8750  156.9797 C.ar    1  UNL1       -0.0059
      2 C         142.4940  137.6463  158.2111 C.ar    1  UNL1        0.0002
      3 C         141.4638  138.4794  158.9145 C.ar    1  UNL1        0.0373
      4 C         140.0612  138.5412  158.3863 C.ar    1  UNL1        0.1477
      5 C         139.6889  137.7699  157.1548 C.ar    1  UNL1        0.0373
      6 C         140.7191  136.9368  156.4516 C.ar    1  UNL1        0.0002
      7 C         143.1519  136.0419  156.2764 C.3     1  UNL1        0.0992
      8 C         143.0994  131.5628  156.7063 C.3     1  UNL1        0.0743
      9 C         142.1632  132.2352  155.7463 C.3     1  UNL1        0.0369
     10 C         142.1807  133.7282  155.6030 C.3     1  UNL1        0.0741
     11 N         143.1344  134.5489  156.4197 N.3     1  UNL1       -0.2689
     12 C         144.0706  133.8766  157.3796 C.3     1  UNL1        0.0741
     13 C         144.0531  132.3835  157.5229 C.3     1  UNL1        0.0369
     14 C         144.0212  127.7360  156.2007 C.3     1  UNL1        0.0946
     15 C         144.0387  129.2291  156.0574 C.2     1  UNL1        0.2229
     16 O         145.0131  129.8813  155.1219 O.2     1  UNL1       -0.2751
     17 N         143.0819  130.0698  156.8496 N.am    1  UNL1       -0.3059
     18 H         142.4424  129.6417  157.4636 H       1  UNL1        0.1494
     19 O         139.0310  139.3743  159.0896 O.3     1  UNL1       -0.4313
     20 C         138.8872  139.2885  160.5802 C.ar    1  UNL1        0.2628
     21 N         139.1138  138.0658  161.4189 N.ar    1  UNL1       -0.2050
     22 C         138.8582  138.4320  162.8509 C.ar    1  UNL1        0.0910
     23 C         138.9259  137.6331  164.1187 C.ar    1  UNL1        0.0197
     24 C         138.6091  138.2834  165.4327 C.ar    1  UNL1        0.0016
     25 C         138.2245  139.7326  165.4790 C.ar    1  UNL1        0.0006
     26 C         138.1568  140.5314  164.2112 C.ar    1  UNL1        0.0081
     27 C         138.4736  139.8811  162.8972 C.ar    1  UNL1        0.0515
     28 S         138.4915  140.4105  161.4938 S.2     1  UNL1       -0.0283
@<TRIPOS>BOND
     1    14    15    1
     2    15    16    2
     3    15    17   am
     4    17     8    1
     5     8     9    1
     6     9    10    1
     7    10    11    1
     8    11     7    1
     9     7     1    1
    10     1     2   ar
    11     2     3   ar
    12     3     4   ar
    13     4    19    1
    14    19    20    1
    15    20    21   ar
    16    21    22   ar
    17    22    23   ar
    18    23    24   ar
    19    24    25   ar
    20    25    26   ar
    21    26    27   ar
    22    27    28   ar
    23     4     5   ar
    24     5     6   ar
    25    11    12    1
    26    12    13    1
    27    13     8    1
    28     6     1   ar
    29    28    20   ar
    30    27    22   ar
    31    17    18    1
@<TRIPOS>MOLECULE
*****
 28 31 0 0 0
SMALL
GASTEIGER

@<TRIPOS>ATOM
      1 C         141.0974  138.4857  158.3025 C.ar    1  UNL1       -0.0059
      2 C         139.9501  138.2276  157.3714 C.ar    1  UNL1        0.0002
      3 C         140.0912  137.2208  156.2684 C.ar    1  UNL1        0.0373
      4 C         141.3797  136.4722  156.0966 C.ar    1  UNL1        0.1477
      5 C         142.5270  136.7304  157.0278 C.ar    1  UNL1        0.0373
      6 C         142.3858  137.7371  158.1307 C.ar    1  UNL1        0.0002
      7 C         140.9563  139.4926  159.4055 C.3     1  UNL1        0.0992
      8 C         139.4041  138.2163  163.4319 C.3     1  UNL1        0.0743
      9 C         138.5489  138.0490  162.2109 C.3     1  UNL1        0.0369
     10 C         139.0663  138.4744  160.8688 C.3     1  UNL1        0.0741
     11 N         140.4389  139.0672  160.7476 N.3     1  UNL1       -0.2689
     12 C         141.2941  139.2345  161.9685 C.3     1  UNL1        0.0741
     13 C         140.7767  138.8091  163.3107 C.3     1  UNL1        0.0369
     14 C         137.6900  138.3618  167.0083 C.3     1  UNL1        0.0946
     15 C         138.2074  138.7872  165.6662 C.2     1  UNL1        0.2229
     16 O         138.0456  140.2090  165.2163 O.2     1  UNL1       -0.2751
     17 N         138.8867  137.7909  164.7740 N.am    1  UNL1       -0.3059
     18 H         138.9929  136.8578  165.0693 H       1  UNL1        0.1494
     19 O         141.5208  135.4654  154.9937 O.3     1  UNL1       -0.4313
     20 C         142.1209  134.1204  155.2782 C.ar    1  UNL1        0.2628
     21 N         143.5660  133.8436  155.5701 N.ar    1  UNL1       -0.2050
     22 C         143.7195  132.3682  155.7931 C.ar    1  UNL1        0.0910
     23 C         144.9142  131.5209  156.1164 C.ar    1  UNL1        0.0197
     24 C         144.7588  130.0387  156.2858 C.ar    1  UNL1        0.0016
     25 C         143.4086  129.4037  156.1318 C.ar    1  UNL1        0.0006
     26 C         142.2138  130.2509  155.8084 C.ar    1  UNL1        0.0081
     27 C         142.3693  131.7332  155.6390 C.ar    1  UNL1        0.0515
     28 S         141.3813  132.8161  155.3209 S.2     1  UNL1       -0.0283
@<TRIPOS>BOND
     1    14    15    1
     2    15    16    2
     3    15    17   am
     4    17     8    1
     5     8     9    1
     6     9    10    1
     7    10    11    1
     8    11     7    1
     9     7     1    1
    10     1     2   ar
    11     2     3   ar
    12     3     4   ar
    13     4    19    1
    14    19    20    1
    15    20    21   ar
    16    21    22   ar
    17    22    23   ar
    18    23    24   ar
    19    24    25   ar
    20    25    26   ar
    21    26    27   ar
    22    27    28   ar
    23     4     5   ar
    24     5     6   ar
    25    11    12    1
    26    12    13    1
    27    13     8    1
    28     6     1   ar
    29    28    20   ar
    30    27    22   ar
    31    17    18    1
@<TRIPOS>MOLECULE
*****
 28 31 0 0 0
SMALL
GASTEIGER

@<TRIPOS>ATOM
      1 C         139.5216  138.5378  161.8220 C.ar    1  UNL1       -0.0059
      2 C         138.6244  139.7037  162.1146 C.ar    1  UNL1        0.0002
      3 C         138.1679  139.9647  163.5195 C.ar    1  UNL1        0.0373
      4 C         138.6086  139.0599  164.6316 C.ar    1  UNL1        0.1477
      5 C         139.5059  137.8939  164.3390 C.ar    1  UNL1        0.0373
      6 C         139.9624  137.6329  162.9342 C.ar    1  UNL1        0.0002
      7 C         139.9781  138.2767  160.4172 C.3     1  UNL1        0.0992
      8 C         143.3273  140.7086  158.6511 C.3     1  UNL1        0.0743
      9 C         141.9325  140.8553  158.1191 C.3     1  UNL1        0.0369
     10 C         140.8161  140.0446  158.7077 C.3     1  UNL1        0.0741
     11 N         141.0945  139.0873  159.8285 N.3     1  UNL1       -0.2689
     12 C         142.4893  138.9406  160.3605 C.3     1  UNL1        0.0741
     13 C         143.6057  139.7512  159.7718 C.3     1  UNL1        0.0369
     14 C         146.3506  141.7902  156.3188 C.3     1  UNL1        0.0946
     15 C         145.2342  140.9795  156.9075 C.2     1  UNL1        0.2229
     16 O         144.9084  139.6293  156.3413 O.2     1  UNL1       -0.2751
     17 N         144.4437  141.5192  158.0624 N.am    1  UNL1       -0.3059
     18 H         144.6575  142.4054  158.4340 H       1  UNL1        0.1494
     19 O         138.1522  139.3209  166.0364 O.3     1  UNL1       -0.4313
     20 C         139.0959  139.9295  167.0308 C.ar    1  UNL1        0.2628
     21 N         139.1122  139.6651  168.5072 N.ar    1  UNL1       -0.2050
     22 C         140.2154  140.4816  169.1123 C.ar    1  UNL1        0.0910
     23 C         140.6999  140.6242  170.5247 C.ar    1  UNL1        0.0197
     24 C         141.8500  141.5358  170.8346 C.ar    1  UNL1        0.0016
     25 C         142.5157  142.3049  169.7322 C.ar    1  UNL1        0.0006
     26 C         142.0312  142.1624  168.3198 C.ar    1  UNL1        0.0081
     27 C         140.8811  141.2507  168.0099 C.ar    1  UNL1        0.0515
     28 S         140.1892  140.9095  166.7234 S.2     1  UNL1       -0.0283
@<TRIPOS>BOND
     1    14    15    1
     2    15    16    2
     3    15    17   am
     4    17     8    1
     5     8     9    1
     6     9    10    1
     7    10    11    1
     8    11     7    1
     9     7     1    1
    10     1     2   ar
    11     2     3   ar
    12     3     4   ar
    13     4    19    1
    14    19    20    1
    15    20    21   ar
    16    21    22   ar
    17    22    23   ar
    18    23    24   ar
    19    24    25   ar
    20    25    26   ar
    21    26    27   ar
    22    27    28   ar
    23     4     5   ar
    24     5     6   ar
    25    11    12    1
    26    12    13    1
    27    13     8    1
    28     6     1   ar
    29    28    20   ar
    30    27    22   ar
    31    17    18    1
@<TRIPOS>MOLECULE
*****
 28 31 0 0 0
SMALL
GASTEIGER

@<TRIPOS>ATOM
      1 C         139.4007  138.0336  162.9330 C.ar    1  UNL1       -0.0059
      2 C         138.3918  138.6990  162.0446 C.ar    1  UNL1        0.0002
      3 C         138.7715  139.1054  160.6515 C.ar    1  UNL1        0.0373
      4 C         140.1601  138.8462  160.1468 C.ar    1  UNL1        0.1477
      5 C         141.1690  138.1807  161.0353 C.ar    1  UNL1        0.0373
      6 C         140.7893  137.7744  162.4284 C.ar    1  UNL1        0.0002
      7 C         139.0210  137.6273  164.3262 C.3     1  UNL1        0.0992
      8 C         139.9639  140.3339  167.7953 C.3     1  UNL1        0.0743
      9 C         140.9607  140.1588  166.6881 C.3     1  UNL1        0.0369
     10 C         140.6464  139.2566  165.5317 C.3     1  UNL1        0.0741
     11 N         139.3353  138.5295  165.4825 N.3     1  UNL1       -0.2689
     12 C         138.3386  138.7046  166.5897 C.3     1  UNL1        0.0741
     13 C         138.6529  139.6068  167.7461 C.3     1  UNL1        0.0369
     14 C         140.7301  143.6161  169.8905 C.3     1  UNL1        0.0946
     15 C         140.4158  142.7139  168.7342 C.2     1  UNL1        0.2229
     16 O         140.2390  143.2895  167.3603 O.2     1  UNL1       -0.2751
     17 N         140.2783  141.2361  168.9516 N.am    1  UNL1       -0.3059
     18 H         140.3943  140.8584  169.8533 H       1  UNL1        0.1494
     19 O         140.5398  139.2525  158.7537 O.3     1  UNL1       -0.4313
     20 C         141.0598  138.2282  157.7891 C.ar    1  UNL1        0.2628
     21 N         142.4844  137.7750  157.6673 N.ar    1  UNL1       -0.2050
     22 C         142.5515  136.7439  156.5799 C.ar    1  UNL1        0.0910
     23 C         143.6935  135.9489  156.0197 C.ar    1  UNL1        0.0197
     24 C         143.4521  134.9698  154.9093 C.ar    1  UNL1        0.0016
     25 C         142.0689  134.7858  154.3590 C.ar    1  UNL1        0.0006
     26 C         140.9270  135.5809  154.9192 C.ar    1  UNL1        0.0081
     27 C         141.1683  136.5599  156.0296 C.ar    1  UNL1        0.0515
     28 S         140.2464  137.4773  156.7770 S.2     1  UNL1       -0.0283
@<TRIPOS>BOND
     1    14    15    1
     2    15    16    2
     3    15    17   am
     4    17     8    1
     5     8     9    1
     6     9    10    1
     7    10    11    1
     8    11     7    1
     9     7     1    1
    10     1     2   ar
    11     2     3   ar
    12     3     4   ar
    13     4    19    1
    14    19    20    1
    15    20    21   ar
    16    21    22   ar
    17    22    23   ar
    18    23    24   ar
    19    24    25   ar
    20    25    26   ar
    21    26    27   ar
    22    27    28   ar
    23     4     5   ar
    24     5     6   ar
    25    11    12    1
    26    12    13    1
    27    13     8    1
    28     6     1   ar
    29    28    20   ar
    30    27    22   ar
    31    17    18    1
@<TRIPOS>MOLECULE
*****
 28 31 0 0 0
SMALL
GASTEIGER

@<TRIPOS>ATOM
      1 C         142.7537  138.6412  162.7287 C.ar    1  UNL1       -0.0059
      2 C         143.8862  138.8590  161.7696 C.ar    1  UNL1        0.0002
      3 C         143.6247  138.8809  160.2927 C.ar    1  UNL1        0.0373
      4 C         142.2306  138.6851  159.7749 C.ar    1  UNL1        0.1477
      5 C         141.0980  138.4673  160.7341 C.ar    1  UNL1        0.0373
      6 C         141.3596  138.4453  162.2109 C.ar    1  UNL1        0.0002
      7 C         143.0152  138.6193  164.2056 C.3     1  UNL1        0.0992
      8 C         141.0934  141.6886  166.8768 C.3     1  UNL1        0.0743
      9 C         142.1686  142.0994  165.9149 C.3     1  UNL1        0.0369
     10 C         142.8092  141.0763  165.0245 C.3     1  UNL1        0.0741
     11 N         142.3746  139.6424  165.0960 N.3     1  UNL1       -0.2689
     12 C         141.2995  139.2316  166.0579 C.3     1  UNL1        0.0741
     13 C         140.6588  140.2547  166.9483 C.3     1  UNL1        0.0369
     14 C         140.4078  144.0388  170.0003 C.3     1  UNL1        0.0946
     15 C         141.0484  143.0157  169.1099 C.2     1  UNL1        0.2229
     16 O         142.2846  142.2966  169.5622 O.2     1  UNL1       -0.2751
     17 N         140.4528  142.7117  167.7672 N.am    1  UNL1       -0.3059
     18 H         139.6414  143.1837  167.4703 H       1  UNL1        0.1494
     19 O         141.9690  138.7070  158.2981 O.3     1  UNL1       -0.4313
     20 C         142.1390  137.4563  157.4877 C.ar    1  UNL1        0.2628
     21 N         143.2332  136.4430  157.6491 N.ar    1  UNL1       -0.2050
     22 C         143.0151  135.3597  156.6347 C.ar    1  UNL1        0.0910
     23 C         143.7768  134.1047  156.3270 C.ar    1  UNL1        0.0197
     24 C         143.3096  133.1935  155.2310 C.ar    1  UNL1        0.0016
     25 C         142.0807  133.5373  154.4426 C.ar    1  UNL1        0.0006
     26 C         141.3190  134.7924  154.7502 C.ar    1  UNL1        0.0081
     27 C         141.7862  135.7036  155.8463 C.ar    1  UNL1        0.0515
     28 S         141.2448  136.9993  156.3735 S.2     1  UNL1       -0.0283
@<TRIPOS>BOND
     1    14    15    1
     2    15    16    2
     3    15    17   am
     4    17     8    1
     5     8     9    1
     6     9    10    1
     7    10    11    1
     8    11     7    1
     9     7     1    1
    10     1     2   ar
    11     2     3   ar
    12     3     4   ar
    13     4    19    1
    14    19    20    1
    15    20    21   ar
    16    21    22   ar
    17    22    23   ar
    18    23    24   ar
    19    24    25   ar
    20    25    26   ar
    21    26    27   ar
    22    27    28   ar
    23     4     5   ar
    24     5     6   ar
    25    11    12    1
    26    12    13    1
    27    13     8    1
    28     6     1   ar
    29    28    20   ar
    30    27    22   ar
    31    17    18    1
