@<TRIPOS>MOLECULE
*****
 28 31 0 0 0
SMALL
GASTEIGER

@<TRIPOS>ATOM
      1 O         138.9588  139.4946  162.7074 O.2     1  UNL1       -0.2522
      2 C         140.3500  138.9441  162.5999 C.2     1  UNL1        0.3078
      3 N         141.1797  138.7562  163.8352 N.am    1  UNL1       -0.2681
      4 N         140.9113  138.5814  161.2569 N.am    1  UNL1       -0.2611
      5 C         140.0815  138.7692  160.0216 C.3     1  UNL1        0.1123
      6 C         140.6429  138.4065  158.6788 C.3     1  UNL1        0.0940
      7 N         142.0341  137.8560  158.5713 N.3     1  UNL1       -0.2677
      8 C         142.8639  137.6681  159.8066 C.3     1  UNL1        0.0940
      9 C         142.3025  138.0308  161.1495 C.3     1  UNL1        0.1123
     10 H         142.0928  138.3949  163.7647 H       1  UNL1        0.1564
     11 C         140.6184  139.1189  165.1782 C.ar    1  UNL1        0.0525
     12 C         141.4031  139.9975  166.1067 C.ar    1  UNL1        0.0156
     13 C         140.8417  140.3602  167.4495 C.ar    1  UNL1        0.0135
     14 C         139.4956  139.8442  167.8638 C.ar    1  UNL1        0.0683
     15 CL        138.9342  140.2070  169.2068 Cl      1  UNL1       -0.0814
     16 C         138.7108  138.9657  166.9353 C.ar    1  UNL1        0.0694
     17 CL        137.3647  138.4497  167.3497 Cl      1  UNL1       -0.0813
     18 C         139.2722  138.6030  165.5925 C.ar    1  UNL1        0.0270
     19 C         142.5955  137.4932  157.2284 C.3     1  UNL1        0.1035
     20 C         142.4801  136.0859  156.7225 C.3     1  UNL1        0.1471
     21 C         143.3941  135.0211  157.2524 C.3     1  UNL1        0.1035
     22 N         143.2787  133.6137  156.7466 N.3     1  UNL1       -0.2698
     23 C         142.2493  133.2711  155.7107 C.3     1  UNL1        0.1046
     24 C         141.3353  134.3358  155.1808 C.3     1  UNL1        0.1594
     25 O         141.4507  135.7433  155.6867 O.3     1  UNL1       -0.3519
     26 C         144.1928  132.5490  157.2765 C.3     1  UNL1        0.0577
     27 C         144.5174  131.0987  157.4794 C.3     1  UNL1        0.0173
     28 C         145.4512  132.1551  157.9914 C.3     1  UNL1        0.0173
@<TRIPOS>BOND
     1     1     2    2
     2     2     3   am
     3     3    11    1
     4    11    12   ar
     5    12    13   ar
     6    13    14   ar
     7    14    15    1
     8    14    16   ar
     9    16    17    1
    10    16    18   ar
    11     2     4   am
    12     4     5    1
    13     5     6    1
    14     6     7    1
    15     7    19    1
    16    20    19    1
    17    20    21    1
    18    21    22    1
    19    22    26    1
    20    26    27    1
    21    27    28    1
    22    22    23    1
    23    23    24    1
    24    24    25    1
    25     7     8    1
    26     8     9    1
    27    18    11   ar
    28     9     4    1
    29    25    20    1
    30    28    26    1
    31     3    10    1
@<TRIPOS>MOLECULE
*****
 28 31 0 0 0
SMALL
GASTEIGER

@<TRIPOS>ATOM
      1 O         144.0968  138.5625  156.1477 O.2     1  UNL1       -0.2522
      2 C         143.2416  138.4896  157.3779 C.2     1  UNL1        0.3078
      3 N         142.3822  137.2851  157.6236 N.am    1  UNL1       -0.2681
      4 N         143.2460  139.6214  158.3624 N.am    1  UNL1       -0.2611
      5 C         144.1055  140.8259  158.1167 C.3     1  UNL1        0.1123
      6 C         144.1098  141.9575  159.1013 C.3     1  UNL1        0.0940
      7 N         143.2546  141.8846  160.3315 N.3     1  UNL1       -0.2677
      8 C         142.3952  140.6801  160.5772 C.3     1  UNL1        0.0940
      9 C         142.3909  139.5485  159.5927 C.3     1  UNL1        0.1123
     10 H         141.8209  137.2373  158.4310 H       1  UNL1        0.1564
     11 C         142.3778  136.1534  156.6391 C.ar    1  UNL1        0.0525
     12 C         141.3962  136.1497  155.5049 C.ar    1  UNL1        0.0156
     13 C         141.3919  135.0180  154.5205 C.ar    1  UNL1        0.0135
     14 C         142.3692  133.8900  154.6701 C.ar    1  UNL1        0.0683
     15 CL        142.3649  132.7583  153.6856 Cl      1  UNL1       -0.0814
     16 C         143.3509  133.8937  155.8043 C.ar    1  UNL1        0.0694
     17 CL        144.3282  132.7657  155.9539 Cl      1  UNL1       -0.0813
     18 C         143.3552  135.0254  156.7887 C.ar    1  UNL1        0.0270
     19 C         143.2590  143.0164  161.3160 C.3     1  UNL1        0.1035
     20 C         142.0520  143.8964  161.4524 C.3     1  UNL1        0.1471
     21 C         141.1837  143.7950  162.6714 C.3     1  UNL1        0.1035
     22 N         139.9768  144.6751  162.8077 N.3     1  UNL1       -0.2698
     23 C         139.6380  145.6566  161.7252 C.3     1  UNL1        0.1046
     24 C         140.5063  145.7580  160.5062 C.3     1  UNL1        0.1594
     25 O         141.7133  144.8779  160.3699 O.3     1  UNL1       -0.3519
     26 C         139.1085  144.5737  164.0267 C.3     1  UNL1        0.0577
     27 C         137.7980  144.2146  164.6618 C.3     1  UNL1        0.0173
     28 C         138.9152  144.7573  165.5028 C.3     1  UNL1        0.0173
@<TRIPOS>BOND
     1     1     2    2
     2     2     3   am
     3     3    11    1
     4    11    12   ar
     5    12    13   ar
     6    13    14   ar
     7    14    15    1
     8    14    16   ar
     9    16    17    1
    10    16    18   ar
    11     2     4   am
    12     4     5    1
    13     5     6    1
    14     6     7    1
    15     7    19    1
    16    20    19    1
    17    20    21    1
    18    21    22    1
    19    22    26    1
    20    26    27    1
    21    27    28    1
    22    22    23    1
    23    23    24    1
    24    24    25    1
    25     7     8    1
    26     8     9    1
    27    18    11   ar
    28     9     4    1
    29    25    20    1
    30    28    26    1
    31     3    10    1
@<TRIPOS>MOLECULE
*****
 28 31 0 0 0
SMALL
GASTEIGER

@<TRIPOS>ATOM
      1 O         143.9629  137.0848  156.1093 O.2     1  UNL1       -0.2522
      2 C         142.4928  136.9945  156.3933 C.2     1  UNL1        0.3078
      3 N         141.8237  135.6540  156.4646 N.am    1  UNL1       -0.2681
      4 N         141.6919  138.2449  156.6060 N.am    1  UNL1       -0.2611
      5 C         142.3610  139.5854  156.5348 C.3     1  UNL1        0.1123
      6 C         141.5601  140.8357  156.7475 C.3     1  UNL1        0.0940
      7 N         140.0900  140.7454  157.0315 N.3     1  UNL1       -0.2677
      8 C         139.4208  139.4048  157.1027 C.3     1  UNL1        0.0940
      9 C         140.2218  138.1546  156.8900 C.3     1  UNL1        0.1123
     10 H         140.8588  135.5947  156.6510 H       1  UNL1        0.1564
     11 C         142.6246  134.4036  156.2519 C.ar    1  UNL1        0.0525
     12 C         142.4684  133.6197  154.9827 C.ar    1  UNL1        0.0156
     13 C         143.2693  132.3694  154.7700 C.ar    1  UNL1        0.0135
     14 C         144.2265  131.9031  155.8266 C.ar    1  UNL1        0.0683
     15 CL        145.0275  130.6527  155.6138 Cl      1  UNL1       -0.0814
     16 C         144.3828  132.6870  157.0958 C.ar    1  UNL1        0.0694
     17 CL        145.3400  132.2207  158.1523 Cl      1  UNL1       -0.0813
     18 C         143.5818  133.9373  157.3084 C.ar    1  UNL1        0.0270
     19 C         139.2890  141.9957  157.2442 C.3     1  UNL1        0.1035
     20 C         139.5702  142.8744  158.4269 C.3     1  UNL1        0.1471
     21 C         138.7909  142.6957  159.6961 C.3     1  UNL1        0.1035
     22 N         139.0721  143.5744  160.8788 N.3     1  UNL1       -0.2698
     23 C         140.1325  144.6318  160.7924 C.3     1  UNL1        0.1046
     24 C         140.9118  144.8105  159.5232 C.3     1  UNL1        0.1594
     25 O         140.6306  143.9317  158.3404 O.3     1  UNL1       -0.3519
     26 C         138.2928  143.3957  162.1480 C.3     1  UNL1        0.0577
     27 C         137.6376  143.9816  163.3634 C.3     1  UNL1        0.0173
     28 C         137.5985  142.5003  163.1308 C.3     1  UNL1        0.0173
@<TRIPOS>BOND
     1     1     2    2
     2     2     3   am
     3     3    11    1
     4    11    12   ar
     5    12    13   ar
     6    13    14   ar
     7    14    15    1
     8    14    16   ar
     9    16    17    1
    10    16    18   ar
    11     2     4   am
    12     4     5    1
    13     5     6    1
    14     6     7    1
    15     7    19    1
    16    20    19    1
    17    20    21    1
    18    21    22    1
    19    22    26    1
    20    26    27    1
    21    27    28    1
    22    22    23    1
    23    23    24    1
    24    24    25    1
    25     7     8    1
    26     8     9    1
    27    18    11   ar
    28     9     4    1
    29    25    20    1
    30    28    26    1
    31     3    10    1
@<TRIPOS>MOLECULE
*****
 28 31 0 0 0
SMALL
GASTEIGER

@<TRIPOS>ATOM
      1 O         141.5358  140.4864  161.2243 O.2     1  UNL1       -0.2522
      2 C         140.4682  140.0418  160.2690 C.2     1  UNL1        0.3078
      3 N         139.0629  140.5410  160.4296 N.am    1  UNL1       -0.2681
      4 N         140.8061  139.0980  159.1531 N.am    1  UNL1       -0.2611
      5 C         142.2114  138.5989  158.9925 C.3     1  UNL1        0.1123
      6 C         142.5492  137.6551  157.8766 C.3     1  UNL1        0.0940
      7 N         141.4816  137.2106  156.9213 N.3     1  UNL1       -0.2677
      8 C         140.0763  137.7097  157.0818 C.3     1  UNL1        0.0940
      9 C         139.7385  138.6535  158.1977 C.3     1  UNL1        0.1123
     10 H         138.3622  140.2492  159.8025 H       1  UNL1        0.1564
     11 C         138.7250  141.4847  161.5455 C.ar    1  UNL1        0.0525
     12 C         138.0254  140.9769  162.7713 C.ar    1  UNL1        0.0156
     13 C         137.6876  141.9207  163.8871 C.ar    1  UNL1        0.0135
     14 C         138.0494  143.3722  163.7772 C.ar    1  UNL1        0.0683
     15 CL        137.7116  144.3160  164.8931 Cl      1  UNL1       -0.0814
     16 C         138.7491  143.8800  162.5514 C.ar    1  UNL1        0.0694
     17 CL        139.1109  145.3316  162.4415 Cl      1  UNL1       -0.0813
     18 C         139.0869  142.9363  161.4356 C.ar    1  UNL1        0.0270
     19 C         141.8194  136.2668  155.8053 C.3     1  UNL1        0.1035
     20 C         142.2060  134.8504  156.1122 C.3     1  UNL1        0.1471
     21 C         141.4817  133.7153  155.4511 C.3     1  UNL1        0.1035
     22 N         141.8683  132.2988  155.7579 N.3     1  UNL1       -0.2698
     23 C         142.9792  132.0174  156.7258 C.3     1  UNL1        0.1046
     24 C         143.7035  133.1525  157.3869 C.3     1  UNL1        0.1594
     25 O         143.3169  134.5690  157.0800 O.3     1  UNL1       -0.3519
     26 C         141.1440  131.1637  155.0969 C.3     1  UNL1        0.0577
     27 C         141.1284  129.7518  154.5908 C.3     1  UNL1        0.0173
     28 C         139.9052  130.6097  154.4580 C.3     1  UNL1        0.0173
@<TRIPOS>BOND
     1     1     2    2
     2     2     3   am
     3     3    11    1
     4    11    12   ar
     5    12    13   ar
     6    13    14   ar
     7    14    15    1
     8    14    16   ar
     9    16    17    1
    10    16    18   ar
    11     2     4   am
    12     4     5    1
    13     5     6    1
    14     6     7    1
    15     7    19    1
    16    20    19    1
    17    20    21    1
    18    21    22    1
    19    22    26    1
    20    26    27    1
    21    27    28    1
    22    22    23    1
    23    23    24    1
    24    24    25    1
    25     7     8    1
    26     8     9    1
    27    18    11   ar
    28     9     4    1
    29    25    20    1
    30    28    26    1
    31     3    10    1
@<TRIPOS>MOLECULE
*****
 28 31 0 0 0
SMALL
GASTEIGER

@<TRIPOS>ATOM
      1 O         139.0444  144.2734  165.0264 O.2     1  UNL1       -0.2522
      2 C         140.0494  143.5448  164.1842 C.2     1  UNL1        0.3078
      3 N         140.7289  142.3193  164.7193 N.am    1  UNL1       -0.2681
      4 N         140.3750  144.0419  162.8069 N.am    1  UNL1       -0.2611
      5 C         139.6955  145.2674  162.2717 C.3     1  UNL1        0.1123
      6 C         140.0211  145.7644  160.8944 C.3     1  UNL1        0.0940
      7 N         141.0260  145.0359  160.0523 N.3     1  UNL1       -0.2677
      8 C         141.7055  143.8103  160.5874 C.3     1  UNL1        0.0940
      9 C         141.3799  143.3133  161.9647 C.3     1  UNL1        0.1123
     10 H         141.3885  141.8412  164.1666 H       1  UNL1        0.1564
     11 C         140.4033  141.8222  166.0967 C.ar    1  UNL1        0.0525
     12 C         139.7392  140.4892  166.2755 C.ar    1  UNL1        0.0156
     13 C         139.4137  139.9923  167.6528 C.ar    1  UNL1        0.0135
     14 C         139.7523  140.8283  168.8513 C.ar    1  UNL1        0.0683
     15 CL        139.4268  140.3312  170.2287 Cl      1  UNL1       -0.0814
     16 C         140.4164  142.1613  168.6725 C.ar    1  UNL1        0.0694
     17 CL        140.7550  142.9973  169.8710 Cl      1  UNL1       -0.0813
     18 C         140.7419  142.6583  167.2952 C.ar    1  UNL1        0.0270
     19 C         141.3516  145.5329  158.6749 C.3     1  UNL1        0.1035
     20 C         140.3322  145.4284  157.5795 C.3     1  UNL1        0.1471
     21 C         139.6136  144.1329  157.3448 C.3     1  UNL1        0.1035
     22 N         138.5942  144.0284  156.2494 N.3     1  UNL1       -0.2698
     23 C         138.2935  145.2196  155.3886 C.3     1  UNL1        0.1046
     24 C         139.0122  146.5151  155.6233 C.3     1  UNL1        0.1594
     25 O         140.0316  146.6195  156.7188 O.3     1  UNL1       -0.3519
     26 C         137.8756  142.7329  156.0147 C.3     1  UNL1        0.0577
     27 C         137.0401  141.5989  156.5304 C.3     1  UNL1        0.0173
     28 C         137.4663  141.6230  155.0924 C.3     1  UNL1        0.0173
@<TRIPOS>BOND
     1     1     2    2
     2     2     3   am
     3     3    11    1
     4    11    12   ar
     5    12    13   ar
     6    13    14   ar
     7    14    15    1
     8    14    16   ar
     9    16    17    1
    10    16    18   ar
    11     2     4   am
    12     4     5    1
    13     5     6    1
    14     6     7    1
    15     7    19    1
    16    20    19    1
    17    20    21    1
    18    21    22    1
    19    22    26    1
    20    26    27    1
    21    27    28    1
    22    22    23    1
    23    23    24    1
    24    24    25    1
    25     7     8    1
    26     8     9    1
    27    18    11   ar
    28     9     4    1
    29    25    20    1
    30    28    26    1
    31     3    10    1
@<TRIPOS>MOLECULE
*****
 28 31 0 0 0
SMALL
GASTEIGER

@<TRIPOS>ATOM
      1 O         142.2170  146.2049  157.8860 O.2     1  UNL1       -0.2522
      2 C         141.0529  145.2682  158.0177 C.2     1  UNL1        0.3078
      3 N         139.8278  145.4713  157.1763 N.am    1  UNL1       -0.2681
      4 N         141.1138  144.1284  158.9910 N.am    1  UNL1       -0.2611
      5 C         142.3389  143.9253  159.8324 C.3     1  UNL1        0.1123
      6 C         142.3998  142.7855  160.8055 C.3     1  UNL1        0.0940
      7 N         141.2356  141.8488  160.9373 N.3     1  UNL1       -0.2677
      8 C         140.0106  142.0519  160.0959 C.3     1  UNL1        0.0940
      9 C         139.9497  143.1917  159.1228 C.3     1  UNL1        0.1123
     10 H         139.0638  144.8565  157.2628 H       1  UNL1        0.1564
     11 C         139.7669  146.6111  156.2031 C.ar    1  UNL1        0.0525
     12 C         140.4915  146.5183  154.8931 C.ar    1  UNL1        0.0156
     13 C         140.4305  147.6581  153.9199 C.ar    1  UNL1        0.0135
     14 C         139.6449  148.8908  154.2568 C.ar    1  UNL1        0.0683
     15 CL        139.5840  150.0306  153.2835 Cl      1  UNL1       -0.0814
     16 C         138.9203  148.9836  155.5668 C.ar    1  UNL1        0.0694
     17 CL        138.1347  150.2162  155.9037 Cl      1  UNL1       -0.0813
     18 C         138.9813  147.8438  156.5400 C.ar    1  UNL1        0.0270
     19 C         141.2966  140.7090  161.9106 C.3     1  UNL1        0.1035
     20 C         140.8066  140.8957  163.3159 C.3     1  UNL1        0.1471
     21 C         139.9684  139.8346  163.9652 C.3     1  UNL1        0.1035
     22 N         139.4784  140.0213  165.3705 N.3     1  UNL1       -0.2698
     23 C         139.8266  141.2692  166.1267 C.3     1  UNL1        0.1046
     24 C         140.6648  142.3303  165.4774 C.3     1  UNL1        0.1594
     25 O         141.1548  142.1435  164.0720 O.3     1  UNL1       -0.3519
     26 C         138.6402  138.9602  166.0198 C.3     1  UNL1        0.0577
     27 C         138.2028  137.5287  166.1167 C.3     1  UNL1        0.0173
     28 C         137.6259  138.5539  167.0474 C.3     1  UNL1        0.0173
@<TRIPOS>BOND
     1     1     2    2
     2     2     3   am
     3     3    11    1
     4    11    12   ar
     5    12    13   ar
     6    13    14   ar
     7    14    15    1
     8    14    16   ar
     9    16    17    1
    10    16    18   ar
    11     2     4   am
    12     4     5    1
    13     5     6    1
    14     6     7    1
    15     7    19    1
    16    20    19    1
    17    20    21    1
    18    21    22    1
    19    22    26    1
    20    26    27    1
    21    27    28    1
    22    22    23    1
    23    23    24    1
    24    24    25    1
    25     7     8    1
    26     8     9    1
    27    18    11   ar
    28     9     4    1
    29    25    20    1
    30    28    26    1
    31     3    10    1
@<TRIPOS>MOLECULE
*****
 28 31 0 0 0
SMALL
GASTEIGER

@<TRIPOS>ATOM
      1 O         140.8777  145.0206  158.0593 O.2     1  UNL1       -0.2522
      2 C         139.7657  144.1510  157.5522 C.2     1  UNL1        0.3078
      3 N         139.0275  144.5299  156.3026 N.am    1  UNL1       -0.2681
      4 N         139.3917  142.9025  158.2948 N.am    1  UNL1       -0.2611
      5 C         140.1298  142.5236  159.5444 C.3     1  UNL1        0.1123
      6 C         139.7559  141.2751  160.2869 C.3     1  UNL1        0.0940
      7 N         138.6438  140.4055  159.7798 N.3     1  UNL1       -0.2677
      8 C         137.9057  140.7844  158.5302 C.3     1  UNL1        0.0940
      9 C         138.2797  142.0329  157.7877 C.3     1  UNL1        0.1123
     10 H         138.2976  143.9592  155.9698 H       1  UNL1        0.1564
     11 C         139.4015  145.7785  155.5600 C.ar    1  UNL1        0.0525
     12 C         140.3877  145.7132  154.4318 C.ar    1  UNL1        0.0156
     13 C         140.7616  146.9617  153.6892 C.ar    1  UNL1        0.0135
     14 C         140.1492  148.2755  154.0749 C.ar    1  UNL1        0.0683
     15 CL        140.5232  149.5241  153.3323 Cl      1  UNL1       -0.0814
     16 C         139.1629  148.3409  155.2032 C.ar    1  UNL1        0.0694
     17 CL        138.5505  149.6547  155.5888 Cl      1  UNL1       -0.0813
     18 C         138.7891  147.0924  155.9457 C.ar    1  UNL1        0.0270
     19 C         138.2699  139.1570  160.5224 C.3     1  UNL1        0.1035
     20 C         139.0686  138.7272  161.7171 C.3     1  UNL1        0.1471
     21 C         138.5576  139.0039  163.0999 C.3     1  UNL1        0.1035
     22 N         139.3563  138.5742  164.2946 N.3     1  UNL1       -0.2698
     23 C         140.6662  137.8677  164.1065 C.3     1  UNL1        0.1046
     24 C         141.1772  137.5910  162.7236 C.3     1  UNL1        0.1594
     25 O         140.3784  138.0208  161.5289 O.3     1  UNL1       -0.3519
     26 C         138.8453  138.8509  165.6775 C.3     1  UNL1        0.0577
     27 C         139.0036  139.5181  167.0115 C.3     1  UNL1        0.0173
     28 C         137.8019  138.6630  166.7385 C.3     1  UNL1        0.0173
@<TRIPOS>BOND
     1     1     2    2
     2     2     3   am
     3     3    11    1
     4    11    12   ar
     5    12    13   ar
     6    13    14   ar
     7    14    15    1
     8    14    16   ar
     9    16    17    1
    10    16    18   ar
    11     2     4   am
    12     4     5    1
    13     5     6    1
    14     6     7    1
    15     7    19    1
    16    20    19    1
    17    20    21    1
    18    21    22    1
    19    22    26    1
    20    26    27    1
    21    27    28    1
    22    22    23    1
    23    23    24    1
    24    24    25    1
    25     7     8    1
    26     8     9    1
    27    18    11   ar
    28     9     4    1
    29    25    20    1
    30    28    26    1
    31     3    10    1
@<TRIPOS>MOLECULE
*****
 28 31 0 0 0
SMALL
GASTEIGER

@<TRIPOS>ATOM
      1 O         142.5212  138.0035  165.2896 O.2     1  UNL1       -0.2522
      2 C         142.0788  139.1701  164.4571 C.2     1  UNL1        0.3078
      3 N         141.3884  140.3342  165.1038 N.am    1  UNL1       -0.2681
      4 N         142.3267  139.1726  162.9776 N.am    1  UNL1       -0.2611
      5 C         143.0170  138.0085  162.3309 C.3     1  UNL1        0.1123
      6 C         143.2648  138.0111  160.8515 C.3     1  UNL1        0.0940
      7 N         142.8224  139.1777  160.0189 N.3     1  UNL1       -0.2677
      8 C         142.1320  140.3418  160.6657 C.3     1  UNL1        0.0940
      9 C         141.8842  140.3392  162.1451 C.3     1  UNL1        0.1123
     10 H         141.0980  141.0999  164.5574 H       1  UNL1        0.1564
     11 C         141.1405  140.3316  166.5833 C.ar    1  UNL1        0.0525
     12 C         139.7595  140.0801  167.1119 C.ar    1  UNL1        0.0156
     13 C         139.5117  140.0776  168.5912 C.ar    1  UNL1        0.0135
     14 C         140.6449  140.3266  169.5420 C.ar    1  UNL1        0.0683
     15 CL        140.3970  140.3241  171.0214 Cl      1  UNL1       -0.0814
     16 C         142.0259  140.5782  169.0133 C.ar    1  UNL1        0.0694
     17 CL        143.1591  140.8272  169.9641 Cl      1  UNL1       -0.0813
     18 C         142.2737  140.5807  167.5340 C.ar    1  UNL1        0.0270
     19 C         143.0703  139.1803  158.5395 C.3     1  UNL1        0.1035
     20 C         142.2253  138.3319  157.6360 C.3     1  UNL1        0.1471
     21 C         142.6729  136.9472  157.2726 C.3     1  UNL1        0.1035
     22 N         141.8279  136.0988  156.3691 N.3     1  UNL1       -0.2698
     23 C         140.5353  136.6352  155.8290 C.3     1  UNL1        0.1046
     24 C         140.0878  138.0200  156.1925 C.3     1  UNL1        0.1594
     25 O         140.9328  138.8683  157.0961 O.3     1  UNL1       -0.3519
     26 C         142.2755  134.7140  156.0056 C.3     1  UNL1        0.0577
     27 C         141.9472  133.2966  155.6407 C.3     1  UNL1        0.0173
     28 C         143.3788  133.7330  155.7409 C.3     1  UNL1        0.0173
@<TRIPOS>BOND
     1     1     2    2
     2     2     3   am
     3     3    11    1
     4    11    12   ar
     5    12    13   ar
     6    13    14   ar
     7    14    15    1
     8    14    16   ar
     9    16    17    1
    10    16    18   ar
    11     2     4   am
    12     4     5    1
    13     5     6    1
    14     6     7    1
    15     7    19    1
    16    20    19    1
    17    20    21    1
    18    21    22    1
    19    22    26    1
    20    26    27    1
    21    27    28    1
    22    22    23    1
    23    23    24    1
    24    24    25    1
    25     7     8    1
    26     8     9    1
    27    18    11   ar
    28     9     4    1
    29    25    20    1
    30    28    26    1
    31     3    10    1
@<TRIPOS>MOLECULE
*****
 28 31 0 0 0
SMALL
GASTEIGER

@<TRIPOS>ATOM
      1 O         140.3443  139.0084  163.9694 O.2     1  UNL1       -0.2522
      2 C         141.6881  139.3527  163.3987 C.2     1  UNL1        0.3078
      3 N         142.7624  139.9030  164.2891 N.am    1  UNL1       -0.2681
      4 N         141.9575  139.1466  161.9375 N.am    1  UNL1       -0.2611
      5 C         140.8832  138.5963  161.0471 C.3     1  UNL1        0.1123
      6 C         141.1526  138.3902  159.5860 C.3     1  UNL1        0.0940
      7 N         142.4964  138.7345  159.0152 N.3     1  UNL1       -0.2677
      8 C         143.5707  139.2849  159.9056 C.3     1  UNL1        0.0940
      9 C         143.3013  139.4909  161.3668 C.3     1  UNL1        0.1123
     10 H         143.6444  140.1290  163.9145 H       1  UNL1        0.1564
     11 C         142.4930  140.1091  165.7503 C.ar    1  UNL1        0.0525
     12 C         142.9623  139.0940  166.7499 C.ar    1  UNL1        0.0156
     13 C         142.6929  139.3001  168.2110 C.ar    1  UNL1        0.0135
     14 C         141.9542  140.5213  168.6725 C.ar    1  UNL1        0.0683
     15 CL        141.6848  140.7274  170.1337 Cl      1  UNL1       -0.0814
     16 C         141.4849  141.5364  167.6729 C.ar    1  UNL1        0.0694
     17 CL        140.7462  142.7576  168.1344 Cl      1  UNL1       -0.0813
     18 C         141.7543  141.3303  166.2118 C.ar    1  UNL1        0.0270
     19 C         142.7658  138.5285  157.5540 C.3     1  UNL1        0.1035
     20 C         142.4025  137.2281  156.9005 C.3     1  UNL1        0.1471
     21 C         143.1607  135.9797  157.2418 C.3     1  UNL1        0.1035
     22 N         142.7974  134.6793  156.5883 N.3     1  UNL1       -0.2698
     23 C         141.6760  134.6274  155.5934 C.3     1  UNL1        0.1046
     24 C         140.9179  135.8759  155.2521 C.3     1  UNL1        0.1594
     25 O         141.2812  137.1763  155.9057 O.3     1  UNL1       -0.3519
     26 C         143.5556  133.4308  156.9297 C.3     1  UNL1        0.0577
     27 C         144.6406  132.7400  157.7012 C.3     1  UNL1        0.0173
     28 C         143.7837  131.9593  156.7492 C.3     1  UNL1        0.0173
@<TRIPOS>BOND
     1     1     2    2
     2     2     3   am
     3     3    11    1
     4    11    12   ar
     5    12    13   ar
     6    13    14   ar
     7    14    15    1
     8    14    16   ar
     9    16    17    1
    10    16    18   ar
    11     2     4   am
    12     4     5    1
    13     5     6    1
    14     6     7    1
    15     7    19    1
    16    20    19    1
    17    20    21    1
    18    21    22    1
    19    22    26    1
    20    26    27    1
    21    27    28    1
    22    22    23    1
    23    23    24    1
    24    24    25    1
    25     7     8    1
    26     8     9    1
    27    18    11   ar
    28     9     4    1
    29    25    20    1
    30    28    26    1
    31     3    10    1
