@<TRIPOS>MOLECULE
*****
 34 36 0 0 0
SMALL
GASTEIGER

@<TRIPOS>ATOM
      1 C         137.6614  142.0871  163.1693 C.ar    1  UNL1        0.1987
      2 N         137.4016  141.4670  161.8284 N.ar    1  UNL1       -0.0331
      3 O         137.7638  142.4716  160.7751 O.2     1  UNL1       -0.2400
      4 N         138.2475  143.7126  161.4650 N.ar    1  UNL1       -0.0391
      5 C         138.1842  143.4750  162.9447 C.ar    1  UNL1        0.2426
      6 C         138.5750  144.4534  164.0124 C.2     1  UNL1        0.3943
      7 N         137.7453  144.5778  165.2558 N.2     1  UNL1        0.1539
      8 O         138.1361  145.5563  166.3235 O.2     1  UNL1       -0.3110
      9 H         137.6178  145.6340  167.1002 H       1  UNL1        0.3605
     10 N         139.7956  145.3074  163.8366 N.pl3   1  UNL1       -0.1942
     11 H         139.7072  146.2301  163.5048 H       1  UNL1        0.2987
     12 C         141.1509  144.7556  164.1666 C.ar    1  UNL1        0.1364
     13 C         142.3849  145.5095  163.7681 C.ar    1  UNL1        0.0425
     14 C         143.7401  144.9577  164.0980 C.ar    1  UNL1        0.0336
     15 C         143.8613  143.6521  164.8264 C.ar    1  UNL1        0.1465
     16 F         145.2166  143.1003  165.1563 F       1  UNL1       -0.2036
     17 C         142.6273  142.8981  165.2248 C.ar    1  UNL1        0.0654
     18 BR        142.7485  141.5925  165.9532 Br      1  UNL1       -0.0465
     19 C         141.2721  143.4499  164.8949 C.ar    1  UNL1        0.0491
     20 N         137.4376  141.4339  164.5010 N.pl3   1  UNL1       -0.3123
     21 H         136.5397  141.4343  164.9047 H       1  UNL1        0.1484
     22 C         138.5818  140.7803  165.2174 C.3     1  UNL1        0.1150
     23 C         138.8744  139.3262  164.9938 C.3     1  UNL1        0.1504
     24 C         141.1598  138.9436  161.8799 C.ar    1  UNL1        0.1306
     25 C         140.5409  139.7866  162.9551 C.ar    1  UNL1        0.1157
     26 N         139.6805  138.8978  163.8035 N.ar    1  UNL1       -0.2287
     27 N         139.7677  137.5054  163.2525 N.ar    1  UNL1       -0.0640
     28 N         140.6819  137.5337  162.0637 N.ar    1  UNL1       -0.1306
     29 C         142.0928  139.4257  160.8089 C.3     1  UNL1        0.1910
     30 O         143.0622  140.5325  161.1011 O.3     1  UNL1       -0.3446
     31 C         144.2403  140.2812  161.9949 C.3     1  UNL1        0.1743
     32 O         145.3521  142.5705  161.4723 O.3     1  UNL1       -0.3794
     33 C         145.1249  141.4201  162.4077 C.3     1  UNL1        0.1692
     34 H         145.9438  143.2153  161.8906 H       1  UNL1        0.2105
@<TRIPOS>BOND
     1    32    33    1
     2    33    31    1
     3    31    30    1
     4    30    29    1
     5    29    24    1
     6    24    25   ar
     7    25    26   ar
     8    26    23    1
     9    23    22    1
    10    22    20    1
    11    20     1    1
    12     1     2   ar
    13     2     3   ar
    14     3     4   ar
    15     4     5   ar
    16     5     6    1
    17     6     7    2
    18     7     8    1
    19     6    10    1
    20    10    12    1
    21    12    13   ar
    22    13    14   ar
    23    14    15   ar
    24    15    16    1
    25    15    17   ar
    26    17    18    1
    27    17    19   ar
    28    26    27   ar
    29    27    28   ar
    30    28    24   ar
    31     5     1   ar
    32    19    12   ar
    33    32    34    1
    34    20    21    1
    35     8     9    1
    36    10    11    1
@<TRIPOS>MOLECULE
*****
 34 36 0 0 0
SMALL
GASTEIGER

@<TRIPOS>ATOM
      1 C         137.9160  142.6388  161.8438 C.ar    1  UNL1        0.1987
      2 N         137.1911  141.4189  162.3297 N.ar    1  UNL1       -0.0331
      3 O         137.0817  141.5088  163.8230 O.2     1  UNL1       -0.2400
      4 N         137.7390  142.7843  164.2600 N.ar    1  UNL1       -0.0391
      5 C         138.2547  143.4827  163.0367 C.ar    1  UNL1        0.2426
      6 C         138.9814  144.7947  163.0110 C.2     1  UNL1        0.3943
      7 N         138.8516  145.7008  161.8226 N.2     1  UNL1        0.1539
      8 O         139.5783  147.0127  161.7968 O.2     1  UNL1       -0.3110
      9 H         139.4973  147.5787  161.0545 H       1  UNL1        0.3605
     10 N         139.8379  145.2006  164.1736 N.pl3   1  UNL1       -0.1942
     11 H         139.4982  145.8480  164.8329 H       1  UNL1        0.2987
     12 C         141.2120  144.6201  164.3317 C.ar    1  UNL1        0.1364
     13 C         142.3975  145.3293  163.7473 C.ar    1  UNL1        0.0425
     14 C         143.7716  144.7488  163.9054 C.ar    1  UNL1        0.0336
     15 C         143.9600  143.4591  164.6478 C.ar    1  UNL1        0.1465
     16 F         145.3342  142.8786  164.8059 F       1  UNL1       -0.2036
     17 C         142.7745  142.7499  165.2321 C.ar    1  UNL1        0.0654
     18 BR        142.9630  141.4602  165.9745 Br      1  UNL1       -0.0465
     19 C         141.4005  143.3304  165.0741 C.ar    1  UNL1        0.0491
     20 N         138.2447  142.9587  160.4156 N.pl3   1  UNL1       -0.3123
     21 H         137.7217  143.6371  159.9302 H       1  UNL1        0.1484
     22 C         139.3699  142.2451  159.7269 C.3     1  UNL1        0.1150
     23 C         139.2240  140.8000  159.3522 C.3     1  UNL1        0.1504
     24 C         141.0632  138.4626  161.8460 C.ar    1  UNL1        0.1306
     25 C         141.0076  139.7139  161.0209 C.ar    1  UNL1        0.1157
     26 N         139.6971  139.7302  160.2912 N.ar    1  UNL1       -0.2287
     27 N         138.9429  138.4888  160.6654 N.ar    1  UNL1       -0.0640
     28 N         139.7871  137.7054  161.6263 N.ar    1  UNL1       -0.1306
     29 C         142.1959  138.0421  162.7348 C.3     1  UNL1        0.1910
     30 O         142.1675  138.3791  164.1962 O.3     1  UNL1       -0.3446
     31 C         140.9055  138.1918  164.9848 C.3     1  UNL1        0.1743
     32 O         138.6996  139.2763  164.1433 O.3     1  UNL1       -0.3794
     33 C         139.8925  139.2960  165.0525 C.3     1  UNL1        0.1692
     34 H         138.1493  140.0564  164.3150 H       1  UNL1        0.2105
@<TRIPOS>BOND
     1    32    33    1
     2    33    31    1
     3    31    30    1
     4    30    29    1
     5    29    24    1
     6    24    25   ar
     7    25    26   ar
     8    26    23    1
     9    23    22    1
    10    22    20    1
    11    20     1    1
    12     1     2   ar
    13     2     3   ar
    14     3     4   ar
    15     4     5   ar
    16     5     6    1
    17     6     7    2
    18     7     8    1
    19     6    10    1
    20    10    12    1
    21    12    13   ar
    22    13    14   ar
    23    14    15   ar
    24    15    16    1
    25    15    17   ar
    26    17    18    1
    27    17    19   ar
    28    26    27   ar
    29    27    28   ar
    30    28    24   ar
    31     5     1   ar
    32    19    12   ar
    33    32    34    1
    34    20    21    1
    35     8     9    1
    36    10    11    1
@<TRIPOS>MOLECULE
*****
 34 36 0 0 0
SMALL
GASTEIGER

@<TRIPOS>ATOM
      1 C         139.0034  143.0234  160.7894 C.ar    1  UNL1        0.1987
      2 N         137.7634  142.9558  161.6307 N.ar    1  UNL1       -0.0331
      3 O         137.7298  144.1739  162.5054 O.2     1  UNL1       -0.2400
      4 N         138.9490  144.9943  162.2046 N.ar    1  UNL1       -0.0391
      5 C         139.7362  144.2832  161.1440 C.ar    1  UNL1        0.2426
      6 C         141.0290  144.7501  160.5435 C.2     1  UNL1        0.3943
      7 N         141.1985  144.7736  159.0533 N.2     1  UNL1        0.1539
      8 O         142.4914  145.2404  158.4528 O.2     1  UNL1       -0.3110
      9 H         142.5973  145.2551  157.5219 H       1  UNL1        0.3605
     10 N         142.1524  145.1934  161.4332 N.pl3   1  UNL1       -0.1942
     11 H         142.3773  146.1493  161.5028 H       1  UNL1        0.2987
     12 C         142.9330  144.1802  162.2170 C.ar    1  UNL1        0.1364
     13 C         143.4522  144.5252  163.5813 C.ar    1  UNL1        0.0425
     14 C         144.2327  143.5120  164.3649 C.ar    1  UNL1        0.0336
     15 C         144.4941  142.1539  163.7843 C.ar    1  UNL1        0.1465
     16 F         145.2747  141.1407  164.5681 F       1  UNL1       -0.2036
     17 C         143.9748  141.8089  162.4200 C.ar    1  UNL1        0.0654
     18 BR        144.2362  140.4507  161.8394 Br      1  UNL1       -0.0465
     19 C         143.1943  142.8220  161.6364 C.ar    1  UNL1        0.0491
     20 N         139.4349  142.0091  159.7720 N.pl3   1  UNL1       -0.3123
     21 H         140.3924  141.8256  159.6353 H       1  UNL1        0.1484
     22 C         138.4075  141.2744  158.9629 C.3     1  UNL1        0.1150
     23 C         137.7056  140.0835  159.5450 C.3     1  UNL1        0.1504
     24 C         138.9274  138.1889  162.7047 C.ar    1  UNL1        0.1306
     25 C         137.9693  139.1217  162.0251 C.ar    1  UNL1        0.1157
     26 N         138.3854  139.2487  160.5895 N.ar    1  UNL1       -0.2287
     27 N         139.6008  138.3944  160.3820 N.ar    1  UNL1       -0.0640
     28 N         139.9357  137.7394  161.6892 N.ar    1  UNL1       -0.1306
     29 C         138.8848  137.7778  164.1465 C.3     1  UNL1        0.1910
     30 O         139.3624  138.7216  165.2101 O.3     1  UNL1       -0.3446
     31 C         138.4721  139.8326  165.6819 C.3     1  UNL1        0.1743
     32 O         137.3986  141.8406  164.4306 O.3     1  UNL1       -0.3794
     33 C         138.5917  141.1989  165.0745 C.3     1  UNL1        0.1692
     34 H         137.6456  142.7149  164.0909 H       1  UNL1        0.2105
@<TRIPOS>BOND
     1    32    33    1
     2    33    31    1
     3    31    30    1
     4    30    29    1
     5    29    24    1
     6    24    25   ar
     7    25    26   ar
     8    26    23    1
     9    23    22    1
    10    22    20    1
    11    20     1    1
    12     1     2   ar
    13     2     3   ar
    14     3     4   ar
    15     4     5   ar
    16     5     6    1
    17     6     7    2
    18     7     8    1
    19     6    10    1
    20    10    12    1
    21    12    13   ar
    22    13    14   ar
    23    14    15   ar
    24    15    16    1
    25    15    17   ar
    26    17    18    1
    27    17    19   ar
    28    26    27   ar
    29    27    28   ar
    30    28    24   ar
    31     5     1   ar
    32    19    12   ar
    33    32    34    1
    34    20    21    1
    35     8     9    1
    36    10    11    1
@<TRIPOS>MOLECULE
*****
 34 36 0 0 0
SMALL
GASTEIGER

@<TRIPOS>ATOM
      1 C         139.0651  138.1164  162.8172 C.ar    1  UNL1        0.1987
      2 N         140.2198  137.6387  161.9875 N.ar    1  UNL1       -0.0331
      3 O         141.2361  137.0356  162.9112 O.2     1  UNL1       -0.2400
      4 N         140.7095  137.1405  164.3118 N.ar    1  UNL1       -0.0391
      5 C         139.3677  137.8085  164.2537 C.ar    1  UNL1        0.2426
      6 C         138.4837  138.1148  165.4262 C.2     1  UNL1        0.3943
      7 N         137.9239  136.9972  166.2556 N.2     1  UNL1        0.1539
      8 O         137.0399  137.3035  167.4281 O.2     1  UNL1       -0.3110
      9 H         136.6902  136.6054  167.9461 H       1  UNL1        0.3605
     10 N         138.1597  139.5385  165.7695 N.pl3   1  UNL1       -0.1942
     11 H         137.3070  139.9337  165.4762 H       1  UNL1        0.2987
     12 C         139.1347  140.3602  166.5595 C.ar    1  UNL1        0.1364
     13 C         139.7581  141.5791  165.9465 C.ar    1  UNL1        0.0425
     14 C         140.7331  142.4007  166.7366 C.ar    1  UNL1        0.0336
     15 C         141.0848  142.0034  168.1396 C.ar    1  UNL1        0.1465
     16 F         142.0599  142.8251  168.9297 F       1  UNL1       -0.2036
     17 C         140.4615  140.7846  168.7526 C.ar    1  UNL1        0.0654
     18 BR        140.8132  140.3873  170.1556 Br      1  UNL1       -0.0465
     19 C         139.4864  139.9630  167.9626 C.ar    1  UNL1        0.0491
     20 N         137.8253  138.7847  162.3010 N.pl3   1  UNL1       -0.3123
     21 H         136.9679  138.3009  162.3035 H       1  UNL1        0.1484
     22 C         137.8919  140.1900  161.7809 C.3     1  UNL1        0.1150
     23 C         137.5611  141.3406  162.6846 C.3     1  UNL1        0.1504
     24 C         140.1054  144.2512  162.3367 C.ar    1  UNL1        0.1306
     25 C         139.7963  142.7878  162.4494 C.ar    1  UNL1        0.1157
     26 N         138.3077  142.6351  162.5545 N.ar    1  UNL1       -0.2287
     27 N         137.6970  144.0043  162.5067 N.ar    1  UNL1       -0.0640
     28 N         138.8079  145.0031  162.3721 N.ar    1  UNL1       -0.1306
     29 C         141.4720  144.8565  162.2107 C.3     1  UNL1        0.1910
     30 O         142.3392  144.5127  161.0361 O.3     1  UNL1       -0.3446
     31 C         143.2032  143.2872  161.0748 C.3     1  UNL1        0.1743
     32 O         144.4585  143.4699  163.3422 O.3     1  UNL1       -0.3794
     33 C         144.4860  143.2982  161.8523 C.3     1  UNL1        0.1692
     34 H         145.3653  143.4542  163.6862 H       1  UNL1        0.2105
@<TRIPOS>BOND
     1    32    33    1
     2    33    31    1
     3    31    30    1
     4    30    29    1
     5    29    24    1
     6    24    25   ar
     7    25    26   ar
     8    26    23    1
     9    23    22    1
    10    22    20    1
    11    20     1    1
    12     1     2   ar
    13     2     3   ar
    14     3     4   ar
    15     4     5   ar
    16     5     6    1
    17     6     7    2
    18     7     8    1
    19     6    10    1
    20    10    12    1
    21    12    13   ar
    22    13    14   ar
    23    14    15   ar
    24    15    16    1
    25    15    17   ar
    26    17    18    1
    27    17    19   ar
    28    26    27   ar
    29    27    28   ar
    30    28    24   ar
    31     5     1   ar
    32    19    12   ar
    33    32    34    1
    34    20    21    1
    35     8     9    1
    36    10    11    1
@<TRIPOS>MOLECULE
*****
 34 36 0 0 0
SMALL
GASTEIGER

@<TRIPOS>ATOM
      1 C         142.2031  144.6487  162.6390 C.ar    1  UNL1        0.1987
      2 N         143.6964  144.6271  162.4998 N.ar    1  UNL1       -0.0331
      3 O         144.2599  143.8718  163.6668 O.2     1  UNL1       -0.2400
      4 N         143.1147  143.4266  164.5273 N.ar    1  UNL1       -0.0391
      5 C         141.8435  143.9068  163.8921 C.ar    1  UNL1        0.2426
      6 C         140.4564  143.6841  164.4176 C.2     1  UNL1        0.3943
      7 N         139.5188  144.8444  164.5752 N.2     1  UNL1        0.1539
      8 O         138.1316  144.6217  165.1008 O.2     1  UNL1       -0.3110
      9 H         137.5460  145.3465  165.1992 H       1  UNL1        0.3605
     10 N         140.0068  142.3012  164.7856 N.pl3   1  UNL1       -0.1942
     11 H         139.7190  141.6740  164.0834 H       1  UNL1        0.2987
     12 C         139.9956  141.8739  166.2235 C.ar    1  UNL1        0.1364
     13 C         139.5500  140.4896  166.5910 C.ar    1  UNL1        0.0425
     14 C         139.5389  140.0624  168.0288 C.ar    1  UNL1        0.0336
     15 C         139.9734  141.0194  169.0990 C.ar    1  UNL1        0.1465
     16 F         139.9622  140.5921  170.5369 F       1  UNL1       -0.2036
     17 C         140.4190  142.4037  168.7314 C.ar    1  UNL1        0.0654
     18 BR        140.8535  143.3607  169.8016 Br      1  UNL1       -0.0465
     19 C         140.4301  142.8309  167.2937 C.ar    1  UNL1        0.0491
     20 N         141.2386  145.2983  161.6914 N.pl3   1  UNL1       -0.3123
     21 H         140.6170  145.9884  162.0179 H       1  UNL1        0.1484
     22 C         141.2210  144.8963  160.2465 C.3     1  UNL1        0.1150
     23 C         140.2601  143.8471  159.7714 C.3     1  UNL1        0.1504
     24 C         138.2321  141.4837  162.0882 C.ar    1  UNL1        0.1306
     25 C         139.3017  141.7111  161.0614 C.ar    1  UNL1        0.1157
     26 N         139.3383  143.1773  160.7469 N.ar    1  UNL1       -0.2287
     27 N         138.2913  143.8561  161.5794 N.ar    1  UNL1       -0.0640
     28 N         137.6076  142.8095  162.4083 N.ar    1  UNL1       -0.1306
     29 C         137.8534  140.1627  162.6892 C.3     1  UNL1        0.1910
     30 O         137.5447  138.9949  161.7999 O.3     1  UNL1       -0.3446
     31 C         138.5666  137.9157  161.5973 C.3     1  UNL1        0.1743
     32 O         141.1294  138.0996  161.2125 O.3     1  UNL1       -0.3794
     33 C         139.9534  138.0839  162.1435 C.3     1  UNL1        0.1692
     34 H         141.9453  138.2158  161.7241 H       1  UNL1        0.2105
@<TRIPOS>BOND
     1    32    33    1
     2    33    31    1
     3    31    30    1
     4    30    29    1
     5    29    24    1
     6    24    25   ar
     7    25    26   ar
     8    26    23    1
     9    23    22    1
    10    22    20    1
    11    20     1    1
    12     1     2   ar
    13     2     3   ar
    14     3     4   ar
    15     4     5   ar
    16     5     6    1
    17     6     7    2
    18     7     8    1
    19     6    10    1
    20    10    12    1
    21    12    13   ar
    22    13    14   ar
    23    14    15   ar
    24    15    16    1
    25    15    17   ar
    26    17    18    1
    27    17    19   ar
    28    26    27   ar
    29    27    28   ar
    30    28    24   ar
    31     5     1   ar
    32    19    12   ar
    33    32    34    1
    34    20    21    1
    35     8     9    1
    36    10    11    1
@<TRIPOS>MOLECULE
*****
 34 36 0 0 0
SMALL
GASTEIGER

@<TRIPOS>ATOM
      1 C         141.0871  145.0136  161.6790 C.ar    1  UNL1        0.1987
      2 N         141.5632  144.9850  160.2568 N.ar    1  UNL1       -0.0331
      3 O         140.4723  144.3926  159.4147 O.2     1  UNL1       -0.2400
      4 N         139.3221  144.0551  160.3165 N.ar    1  UNL1       -0.0391
      5 C         139.7021  144.4389  161.7159 C.ar    1  UNL1        0.2426
      6 C         138.8471  144.2766  162.9376 C.2     1  UNL1        0.3943
      7 N         139.1602  145.0551  164.1810 N.2     1  UNL1        0.1539
      8 O         138.3052  144.8927  165.4028 O.2     1  UNL1       -0.3110
      9 H         138.5008  145.3790  166.1795 H       1  UNL1        0.3605
     10 N         137.6791  143.3358  162.9160 N.pl3   1  UNL1       -0.1942
     11 H         136.7652  143.6878  162.8155 H       1  UNL1        0.2987
     12 C         137.9034  141.8584  163.0476 C.ar    1  UNL1        0.1364
     13 C         137.9592  140.9962  161.8214 C.ar    1  UNL1        0.0425
     14 C         138.1835  139.5189  161.9530 C.ar    1  UNL1        0.0336
     15 C         138.3521  138.9039  163.3107 C.ar    1  UNL1        0.1465
     16 F         138.5764  137.4266  163.4422 F       1  UNL1       -0.2036
     17 C         138.2963  139.7661  164.5368 C.ar    1  UNL1        0.0654
     18 BR        138.4649  139.1511  165.8945 Br      1  UNL1       -0.0465
     19 C         138.0720  141.2434  164.4052 C.ar    1  UNL1        0.0491
     20 N         141.8604  145.5268  162.8574 N.pl3   1  UNL1       -0.3123
     21 H         141.7834  146.4717  163.1230 H       1  UNL1        0.1484
     22 C         142.7509  144.6005  163.6312 C.3     1  UNL1        0.1150
     23 C         142.5721  143.1159  163.5137 C.3     1  UNL1        0.1504
     24 C         141.2125  141.6129  166.8240 C.ar    1  UNL1        0.1306
     25 C         141.2792  142.7258  165.8205 C.ar    1  UNL1        0.1157
     26 N         142.2122  142.3057  164.7237 N.ar    1  UNL1       -0.2287
     27 N         142.7222  140.9332  165.0494 N.ar    1  UNL1       -0.0640
     28 N         142.1043  140.5050  166.3475 N.ar    1  UNL1       -0.1306
     29 C         140.3972  141.6087  168.0830 C.3     1  UNL1        0.1910
     30 O         140.3743  142.8211  168.9659 O.3     1  UNL1       -0.3446
     31 C         140.1029  142.6750  170.4338 C.3     1  UNL1        0.1743
     32 O         140.5813  140.5666  171.8746 O.3     1  UNL1       -0.3794
     33 C         141.0349  141.8726  171.2926 C.3     1  UNL1        0.1692
     34 H         141.2993  140.1799  172.3997 H       1  UNL1        0.2105
@<TRIPOS>BOND
     1    32    33    1
     2    33    31    1
     3    31    30    1
     4    30    29    1
     5    29    24    1
     6    24    25   ar
     7    25    26   ar
     8    26    23    1
     9    23    22    1
    10    22    20    1
    11    20     1    1
    12     1     2   ar
    13     2     3   ar
    14     3     4   ar
    15     4     5   ar
    16     5     6    1
    17     6     7    2
    18     7     8    1
    19     6    10    1
    20    10    12    1
    21    12    13   ar
    22    13    14   ar
    23    14    15   ar
    24    15    16    1
    25    15    17   ar
    26    17    18    1
    27    17    19   ar
    28    26    27   ar
    29    27    28   ar
    30    28    24   ar
    31     5     1   ar
    32    19    12   ar
    33    32    34    1
    34    20    21    1
    35     8     9    1
    36    10    11    1
@<TRIPOS>MOLECULE
*****
 34 36 0 0 0
SMALL
GASTEIGER

@<TRIPOS>ATOM
      1 C         139.5060  143.5426  161.2194 C.ar    1  UNL1        0.1987
      2 N         139.6788  145.0318  161.1680 N.ar    1  UNL1       -0.0331
      3 O         138.6075  145.6522  162.0150 O.2     1  UNL1       -0.2400
      4 N         137.7726  144.5465  162.5898 N.ar    1  UNL1       -0.0391
      5 C         138.3279  143.2427  162.0981 C.ar    1  UNL1        0.2426
      6 C         137.7982  141.8785  162.4273 C.2     1  UNL1        0.3943
      7 N         137.7628  140.8129  161.3722 N.2     1  UNL1        0.1539
      8 O         137.2331  139.4488  161.7014 O.2     1  UNL1       -0.3110
      9 H         137.2110  138.7831  161.0423 H       1  UNL1        0.3605
     10 N         137.3038  141.5799  163.8117 N.pl3   1  UNL1       -0.1942
     11 H         136.3543  141.7137  164.0348 H       1  UNL1        0.2987
     12 C         138.2561  141.0775  164.8561 C.ar    1  UNL1        0.1364
     13 C         138.1445  139.6680  165.3569 C.ar    1  UNL1        0.0425
     14 C         139.0968  139.1656  166.4013 C.ar    1  UNL1        0.0336
     15 C         140.1606  140.0728  166.9448 C.ar    1  UNL1        0.1465
     16 F         141.1130  139.5703  167.9892 F       1  UNL1       -0.2036
     17 C         140.2722  141.4822  166.4440 C.ar    1  UNL1        0.0654
     18 BR        141.3360  142.3893  166.9875 Br      1  UNL1       -0.0465
     19 C         139.3199  141.9846  165.3996 C.ar    1  UNL1        0.0491
     20 N         140.3611  142.5310  160.5155 N.pl3   1  UNL1       -0.3123
     21 H         140.4304  141.6144  160.8681 H       1  UNL1        0.1484
     22 C         141.1108  142.9159  159.2747 C.3     1  UNL1        0.1150
     23 C         142.6067  143.0221  159.3047 C.3     1  UNL1        0.1504
     24 C         144.7827  142.4758  162.4721 C.ar    1  UNL1        0.1306
     25 C         144.3056  142.0384  161.1190 C.ar    1  UNL1        0.1157
     26 N         143.3296  143.0617  160.6184 N.ar    1  UNL1       -0.2287
     27 N         143.2036  144.1314  161.6623 N.ar    1  UNL1       -0.0640
     28 N         144.1016  143.7693  162.8079 N.ar    1  UNL1       -0.1306
     29 C         145.7678  141.7475  163.3375 C.3     1  UNL1        0.1910
     30 O         145.2864  140.7315  164.3305 O.3     1  UNL1       -0.3446
     31 C         144.5993  139.4856  163.8557 C.3     1  UNL1        0.1743
     32 O         142.8382  138.2970  165.3509 O.3     1  UNL1       -0.3794
     33 C         143.1678  139.2315  164.2248 C.3     1  UNL1        0.1692
     34 H         141.8754  138.2456  165.4571 H       1  UNL1        0.2105
@<TRIPOS>BOND
     1    32    33    1
     2    33    31    1
     3    31    30    1
     4    30    29    1
     5    29    24    1
     6    24    25   ar
     7    25    26   ar
     8    26    23    1
     9    23    22    1
    10    22    20    1
    11    20     1    1
    12     1     2   ar
    13     2     3   ar
    14     3     4   ar
    15     4     5   ar
    16     5     6    1
    17     6     7    2
    18     7     8    1
    19     6    10    1
    20    10    12    1
    21    12    13   ar
    22    13    14   ar
    23    14    15   ar
    24    15    16    1
    25    15    17   ar
    26    17    18    1
    27    17    19   ar
    28    26    27   ar
    29    27    28   ar
    30    28    24   ar
    31     5     1   ar
    32    19    12   ar
    33    32    34    1
    34    20    21    1
    35     8     9    1
    36    10    11    1
@<TRIPOS>MOLECULE
*****
 34 36 0 0 0
SMALL
GASTEIGER

@<TRIPOS>ATOM
      1 C         137.9582  141.6749  162.9423 C.ar    1  UNL1        0.1987
      2 N         137.3231  141.5950  161.5858 N.ar    1  UNL1       -0.0331
      3 O         137.7244  142.8167  160.8134 O.2     1  UNL1       -0.2400
      4 N         138.6075  143.6516  161.6927 N.ar    1  UNL1       -0.0391
      5 C         138.7520  142.9459  163.0084 C.ar    1  UNL1        0.2426
      6 C         139.5502  143.4268  164.1838 C.2     1  UNL1        0.3943
      7 N         139.1625  143.0144  165.5730 N.2     1  UNL1        0.1539
      8 O         139.9606  143.4953  166.7484 O.2     1  UNL1       -0.3110
      9 H         139.7184  143.2378  167.6162 H       1  UNL1        0.3605
     10 N         140.7361  144.3201  163.9702 N.pl3   1  UNL1       -0.1942
     11 H         140.6272  145.2981  163.9989 H       1  UNL1        0.2987
     12 C         142.0880  143.7232  163.7127 C.ar    1  UNL1        0.1364
     13 C         143.0950  144.4730  162.8919 C.ar    1  UNL1        0.0425
     14 C         144.4468  143.8761  162.6345 C.ar    1  UNL1        0.0336
     15 C         144.7916  142.5293  163.1979 C.ar    1  UNL1        0.1465
     16 F         146.1435  141.9324  162.9404 F       1  UNL1       -0.2036
     17 C         143.7846  141.7795  164.0186 C.ar    1  UNL1        0.0654
     18 BR        144.1294  140.4327  164.5820 Br      1  UNL1       -0.0465
     19 C         142.4328  142.3764  164.2761 C.ar    1  UNL1        0.0491
     20 N         137.8233  140.6616  164.0401 N.pl3   1  UNL1       -0.3123
     21 H         137.2747  140.8640  164.8321 H       1  UNL1        0.1484
     22 C         138.5240  139.3399  163.9311 C.3     1  UNL1        0.1150
     23 C         138.6680  138.4652  165.1412 C.3     1  UNL1        0.1504
     24 C         140.3672  140.2109  168.1629 C.ar    1  UNL1        0.1306
     25 C         140.3696  139.7852  166.7246 C.ar    1  UNL1        0.1157
     26 N         139.0837  139.0622  166.4529 N.ar    1  UNL1       -0.2287
     27 N         138.2866  139.0412  167.7234 N.ar    1  UNL1       -0.0640
     28 N         139.0798  139.7511  168.7802 N.ar    1  UNL1       -0.1306
     29 C         141.4602  140.9641  168.8613 C.3     1  UNL1        0.1910
     30 O         141.4631  142.4641  168.8500 O.3     1  UNL1       -0.3446
     31 C         140.8965  143.2241  170.0124 C.3     1  UNL1        0.1743
     32 O         138.8493  143.6418  171.5566 O.3     1  UNL1       -0.3794
     33 C         139.6781  142.7114  170.7214 C.3     1  UNL1        0.1692
     34 H         138.1046  143.1540  171.9418 H       1  UNL1        0.2105
@<TRIPOS>BOND
     1    32    33    1
     2    33    31    1
     3    31    30    1
     4    30    29    1
     5    29    24    1
     6    24    25   ar
     7    25    26   ar
     8    26    23    1
     9    23    22    1
    10    22    20    1
    11    20     1    1
    12     1     2   ar
    13     2     3   ar
    14     3     4   ar
    15     4     5   ar
    16     5     6    1
    17     6     7    2
    18     7     8    1
    19     6    10    1
    20    10    12    1
    21    12    13   ar
    22    13    14   ar
    23    14    15   ar
    24    15    16    1
    25    15    17   ar
    26    17    18    1
    27    17    19   ar
    28    26    27   ar
    29    27    28   ar
    30    28    24   ar
    31     5     1   ar
    32    19    12   ar
    33    32    34    1
    34    20    21    1
    35     8     9    1
    36    10    11    1
@<TRIPOS>MOLECULE
*****
 34 36 0 0 0
SMALL
GASTEIGER

@<TRIPOS>ATOM
      1 C         138.3940  143.9780  162.6014 C.ar    1  UNL1        0.1987
      2 N         137.8729  143.9892  164.0079 N.ar    1  UNL1       -0.0331
      3 O         138.7627  144.8787  164.8247 O.2     1  UNL1       -0.2400
      4 N         139.8336  145.4172  163.9230 N.ar    1  UNL1       -0.0391
      5 C         139.6058  144.8605  162.5489 C.ar    1  UNL1        0.2426
      6 C         140.4427  145.1377  161.3353 C.2     1  UNL1        0.3943
      7 N         139.7898  145.2959  159.9941 N.2     1  UNL1        0.1539
      8 O         140.6267  145.5731  158.7806 O.2     1  UNL1       -0.3110
      9 H         140.2189  145.6720  157.9428 H       1  UNL1        0.3605
     10 N         141.9325  145.2567  161.4629 N.pl3   1  UNL1       -0.1942
     11 H         142.3970  146.0424  161.0940 H       1  UNL1        0.2987
     12 C         142.7147  144.1785  162.1527 C.ar    1  UNL1        0.1364
     13 C         142.9285  142.8571  161.4758 C.ar    1  UNL1        0.0425
     14 C         143.7107  141.7790  162.1656 C.ar    1  UNL1        0.0336
     15 C         144.2790  142.0222  163.5323 C.ar    1  UNL1        0.1465
     16 F         145.0612  140.9440  164.2221 F       1  UNL1       -0.2036
     17 C         144.0651  143.3436  164.2092 C.ar    1  UNL1        0.0654
     18 BR        144.6334  143.5868  165.5759 Br      1  UNL1       -0.0465
     19 C         143.2830  144.4217  163.5194 C.ar    1  UNL1        0.0491
     20 N         137.8064  143.2177  161.4496 N.pl3   1  UNL1       -0.3123
     21 H         137.0396  143.5879  160.9554 H       1  UNL1        0.1484
     22 C         138.3870  141.8935  161.0507 C.3     1  UNL1        0.1150
     23 C         137.6627  140.6243  161.3892 C.3     1  UNL1        0.1504
     24 C         138.4780  139.2388  164.9221 C.ar    1  UNL1        0.1306
     25 C         138.0135  140.3472  164.0246 C.ar    1  UNL1        0.1157
     26 N         138.0470  139.8447  162.6116 N.ar    1  UNL1       -0.2287
     27 N         138.5322  138.4255  162.6360 N.ar    1  UNL1       -0.0640
     28 N         138.7986  138.0511  164.0638 N.ar    1  UNL1       -0.1306
     29 C         138.6005  139.3061  166.4154 C.3     1  UNL1        0.1910
     30 O         139.9161  139.6566  167.0452 O.3     1  UNL1       -0.3446
     31 C         140.3685  141.0859  167.0911 C.3     1  UNL1        0.1743
     32 O         140.6499  143.0129  165.3713 O.3     1  UNL1       -0.3794
     33 C         141.0836  141.6843  165.9162 C.3     1  UNL1        0.1692
     34 H         141.2125  143.2529  164.6185 H       1  UNL1        0.2105
@<TRIPOS>BOND
     1    32    33    1
     2    33    31    1
     3    31    30    1
     4    30    29    1
     5    29    24    1
     6    24    25   ar
     7    25    26   ar
     8    26    23    1
     9    23    22    1
    10    22    20    1
    11    20     1    1
    12     1     2   ar
    13     2     3   ar
    14     3     4   ar
    15     4     5   ar
    16     5     6    1
    17     6     7    2
    18     7     8    1
    19     6    10    1
    20    10    12    1
    21    12    13   ar
    22    13    14   ar
    23    14    15   ar
    24    15    16    1
    25    15    17   ar
    26    17    18    1
    27    17    19   ar
    28    26    27   ar
    29    27    28   ar
    30    28    24   ar
    31     5     1   ar
    32    19    12   ar
    33    32    34    1
    34    20    21    1
    35     8     9    1
    36    10    11    1
