@<TRIPOS>MOLECULE
*****
 22 24 0 0 0
SMALL
GASTEIGER

@<TRIPOS>ATOM
      1 N         140.2163  146.4873  162.4137 N.pl3   1  UNL1       -0.3375
      2 C         139.6966  145.1337  162.7983 C.ar    1  UNL1        0.1567
      3 N         138.7635  144.2844  161.9871 N.ar    1  UNL1       -0.2245
      4 C         138.5090  143.0176  162.7490 C.ar    1  UNL1        0.0893
      5 C         137.6711  141.8122  162.4411 C.ar    1  UNL1        0.0202
      6 C         137.6090  140.6733  163.4151 C.ar    1  UNL1        0.0077
      7 C         138.3849  140.7396  164.6971 C.ar    1  UNL1        0.0261
      8 C         139.2229  141.9450  165.0051 C.ar    1  UNL1        0.0142
      9 C         139.2849  143.0840  164.0311 C.ar    1  UNL1        0.0502
     10 S         140.0189  144.3918  164.0615 S.2     1  UNL1       -0.0520
     11 H         139.9458  146.8937  161.5588 H       1  UNL1        0.1442
     12 H         140.8278  146.9692  163.0162 H       1  UNL1        0.1442
     13 S         138.3228  139.6006  165.6712 S.3     1  UNL1       -0.1088
     14 C         138.9337  138.2771  165.3174 C.3     1  UNL1        0.0884
     15 C         140.1652  138.2239  164.4626 C.ar    1  UNL1       -0.0101
     16 C         140.0727  137.7492  163.0428 C.ar    1  UNL1       -0.0025
     17 C         141.3042  137.6961  162.1880 C.ar    1  UNL1        0.0120
     18 C         142.6281  138.1177  162.7532 C.ar    1  UNL1        0.0682
     19 CL        143.8596  138.0645  161.8983 Cl      1  UNL1       -0.0814
     20 C         142.7206  138.5924  164.1730 C.ar    1  UNL1        0.0679
     21 CL        144.0446  139.0139  164.7381 Cl      1  UNL1       -0.0814
     22 C         141.4892  138.6455  165.0277 C.ar    1  UNL1        0.0088
@<TRIPOS>BOND
     1     1     2    1
     2     2     3   ar
     3     3     4   ar
     4     4     5   ar
     5     5     6   ar
     6     6     7   ar
     7     7    13    1
     8    13    14    1
     9    14    15    1
    10    15    16   ar
    11    16    17   ar
    12    17    18   ar
    13    18    19    1
    14    18    20   ar
    15    20    21    1
    16    20    22   ar
    17     7     8   ar
    18     8     9   ar
    19     9    10   ar
    20    10     2   ar
    21     9     4   ar
    22    22    15   ar
    23     1    11    1
    24     1    12    1
@<TRIPOS>MOLECULE
*****
 22 24 0 0 0
SMALL
GASTEIGER

@<TRIPOS>ATOM
      1 N         146.2192  141.8237  163.5218 N.pl3   1  UNL1       -0.3375
      2 C         144.8828  142.5042  163.5506 C.ar    1  UNL1        0.1567
      3 N         144.3331  143.4130  162.4914 N.ar    1  UNL1       -0.2245
      4 C         142.9720  143.8659  162.9299 C.ar    1  UNL1        0.0893
      5 C         141.9604  144.7697  162.2897 C.ar    1  UNL1        0.0202
      6 C         140.6573  145.0446  162.9798 C.ar    1  UNL1        0.0077
      7 C         140.3658  144.4158  164.3100 C.ar    1  UNL1        0.0261
      8 C         141.3774  143.5120  164.9502 C.ar    1  UNL1        0.0142
      9 C         142.6805  143.2371  164.2601 C.ar    1  UNL1        0.0502
     10 S         143.8614  142.3955  164.6437 S.2     1  UNL1       -0.0520
     11 H         146.8235  141.9578  162.7562 H       1  UNL1        0.1442
     12 H         146.4921  141.2429  164.2685 H       1  UNL1        0.1442
     13 S         139.0626  144.6908  165.0001 S.3     1  UNL1       -0.1088
     14 C         137.8172  143.9787  164.5622 C.3     1  UNL1        0.0884
     15 C         137.9099  142.6104  163.9546 C.ar    1  UNL1       -0.0101
     16 C         137.7496  142.4351  162.4735 C.ar    1  UNL1       -0.0025
     17 C         137.8423  141.0668  161.8659 C.ar    1  UNL1        0.0120
     18 C         138.0952  139.8739  162.7393 C.ar    1  UNL1        0.0682
     19 CL        138.1879  138.5056  162.1317 Cl      1  UNL1       -0.0814
     20 C         138.2554  140.0492  164.2204 C.ar    1  UNL1        0.0679
     21 CL        138.5084  138.8562  165.0938 Cl      1  UNL1       -0.0814
     22 C         138.1628  141.4174  164.8280 C.ar    1  UNL1        0.0088
@<TRIPOS>BOND
     1     1     2    1
     2     2     3   ar
     3     3     4   ar
     4     4     5   ar
     5     5     6   ar
     6     6     7   ar
     7     7    13    1
     8    13    14    1
     9    14    15    1
    10    15    16   ar
    11    16    17   ar
    12    17    18   ar
    13    18    19    1
    14    18    20   ar
    15    20    21    1
    16    20    22   ar
    17     7     8   ar
    18     8     9   ar
    19     9    10   ar
    20    10     2   ar
    21     9     4   ar
    22    22    15   ar
    23     1    11    1
    24     1    12    1
@<TRIPOS>MOLECULE
*****
 22 24 0 0 0
SMALL
GASTEIGER

@<TRIPOS>ATOM
      1 N         139.9079  146.6236  162.0570 N.pl3   1  UNL1       -0.3375
      2 C         139.5990  145.2781  162.6437 C.ar    1  UNL1        0.1567
      3 N         138.3291  144.5031  162.4519 N.ar    1  UNL1       -0.2245
      4 C         138.4511  143.2173  163.2148 C.ar    1  UNL1        0.0893
      5 C         137.5110  142.0619  163.3912 C.ar    1  UNL1        0.0202
      6 C         137.9161  140.8869  164.2309 C.ar    1  UNL1        0.0077
      7 C         139.2614  140.8672  164.8941 C.ar    1  UNL1        0.0261
      8 C         140.2015  142.0226  164.7177 C.ar    1  UNL1        0.0142
      9 C         139.7963  143.1977  163.8780 C.ar    1  UNL1        0.0502
     10 S         140.5058  144.4713  163.5251 S.2     1  UNL1       -0.0520
     11 H         139.2446  147.0764  161.4875 H       1  UNL1        0.1442
     12 H         140.7739  147.0540  162.2415 H       1  UNL1        0.1442
     13 S         139.6665  139.6921  165.7338 S.3     1  UNL1       -0.1088
     14 C         139.5223  139.7510  167.2256 C.3     1  UNL1        0.0884
     15 C         140.4568  140.5990  168.0366 C.ar    1  UNL1       -0.0101
     16 C         141.8492  140.1192  168.3212 C.ar    1  UNL1       -0.0025
     17 C         142.7836  140.9672  169.1321 C.ar    1  UNL1        0.0120
     18 C         142.3257  142.2951  169.6585 C.ar    1  UNL1        0.0682
     19 CL        143.2602  143.1431  170.4694 Cl      1  UNL1       -0.0814
     20 C         140.9333  142.7749  169.3739 C.ar    1  UNL1        0.0679
     21 CL        140.4754  144.1028  169.9002 Cl      1  UNL1       -0.0814
     22 C         139.9989  141.9269  168.5629 C.ar    1  UNL1        0.0088
@<TRIPOS>BOND
     1     1     2    1
     2     2     3   ar
     3     3     4   ar
     4     4     5   ar
     5     5     6   ar
     6     6     7   ar
     7     7    13    1
     8    13    14    1
     9    14    15    1
    10    15    16   ar
    11    16    17   ar
    12    17    18   ar
    13    18    19    1
    14    18    20   ar
    15    20    21    1
    16    20    22   ar
    17     7     8   ar
    18     8     9   ar
    19     9    10   ar
    20    10     2   ar
    21     9     4   ar
    22    22    15   ar
    23     1    11    1
    24     1    12    1
@<TRIPOS>MOLECULE
*****
 22 24 0 0 0
SMALL
GASTEIGER

@<TRIPOS>ATOM
      1 N         144.5589  142.7983  170.0547 N.pl3   1  UNL1       -0.3375
      2 C         143.2868  142.1210  169.6386 C.ar    1  UNL1        0.1567
      3 N         142.2210  141.6045  170.5590 N.ar    1  UNL1       -0.2245
      4 C         141.1327  141.0056  169.7183 C.ar    1  UNL1        0.0893
      5 C         139.8345  140.3459  170.0780 C.ar    1  UNL1        0.0202
      6 C         138.9294  139.8326  168.9976 C.ar    1  UNL1        0.0077
      7 C         139.3226  139.9790  167.5574 C.ar    1  UNL1        0.0261
      8 C         140.6208  140.6387  167.1977 C.ar    1  UNL1        0.0142
      9 C         141.5258  141.1520  168.2782 C.ar    1  UNL1        0.0502
     10 S         142.8571  141.8413  168.2289 S.2     1  UNL1       -0.0520
     11 H         144.7528  142.9374  171.0098 H       1  UNL1        0.1442
     12 H         145.1998  143.1038  169.3726 H       1  UNL1        0.1442
     13 S         138.4175  139.4656  166.4770 S.3     1  UNL1       -0.1088
     14 C         138.6727  138.1223  165.8602 C.3     1  UNL1        0.0884
     15 C         139.5452  138.0085  164.6453 C.ar    1  UNL1       -0.0101
     16 C         141.0225  137.7993  164.7998 C.ar    1  UNL1       -0.0025
     17 C         141.8949  137.6854  163.5849 C.ar    1  UNL1        0.0120
     18 C         141.2901  137.7808  162.2156 C.ar    1  UNL1        0.0682
     19 CL        142.1626  137.6669  161.0007 Cl      1  UNL1       -0.0814
     20 C         139.8128  137.9900  162.0611 C.ar    1  UNL1        0.0679
     21 CL        139.2080  138.0853  160.6918 Cl      1  UNL1       -0.0814
     22 C         138.9404  138.1038  163.2759 C.ar    1  UNL1        0.0088
@<TRIPOS>BOND
     1     1     2    1
     2     2     3   ar
     3     3     4   ar
     4     4     5   ar
     5     5     6   ar
     6     6     7   ar
     7     7    13    1
     8    13    14    1
     9    14    15    1
    10    15    16   ar
    11    16    17   ar
    12    17    18   ar
    13    18    19    1
    14    18    20   ar
    15    20    21    1
    16    20    22   ar
    17     7     8   ar
    18     8     9   ar
    19     9    10   ar
    20    10     2   ar
    21     9     4   ar
    22    22    15   ar
    23     1    11    1
    24     1    12    1
@<TRIPOS>MOLECULE
*****
 22 24 0 0 0
SMALL
GASTEIGER

@<TRIPOS>ATOM
      1 N         140.0174  146.5556  162.1219 N.pl3   1  UNL1       -0.3375
      2 C         139.6348  145.1165  162.3020 C.ar    1  UNL1        0.1567
      3 N         138.2651  144.6032  162.6347 N.ar    1  UNL1       -0.2245
      4 C         138.3385  143.1074  162.7192 C.ar    1  UNL1        0.0893
      5 C         137.2996  142.0667  163.0154 C.ar    1  UNL1        0.0202
      6 C         137.6758  140.6148  163.0310 C.ar    1  UNL1        0.0077
      7 C         139.0908  140.2035  162.7506 C.ar    1  UNL1        0.0261
      8 C         140.1296  141.2442  162.4544 C.ar    1  UNL1        0.0142
      9 C         139.7535  142.6961  162.4388 C.ar    1  UNL1        0.0502
     10 S         140.5546  143.9378  162.1809 S.2     1  UNL1       -0.0520
     11 H         139.3386  147.2617  162.2223 H       1  UNL1        0.1442
     12 H         140.9472  146.7941  161.9034 H       1  UNL1        0.1442
     13 S         139.4669  138.7515  162.7662 S.3     1  UNL1       -0.1088
     14 C         140.1682  138.1712  163.9585 C.3     1  UNL1        0.0884
     15 C         139.8967  138.7188  165.3283 C.ar    1  UNL1       -0.0101
     16 C         138.5312  138.5820  165.9337 C.ar    1  UNL1       -0.0025
     17 C         138.2598  139.1296  167.3035 C.ar    1  UNL1        0.0120
     18 C         139.3539  139.8141  168.0679 C.ar    1  UNL1        0.0682
     19 CL        139.0824  140.3617  169.4378 Cl      1  UNL1       -0.0814
     20 C         140.7195  139.9509  167.4626 C.ar    1  UNL1        0.0679
     21 CL        141.8136  140.6353  168.2271 Cl      1  UNL1       -0.0814
     22 C         140.9909  139.4033  166.0928 C.ar    1  UNL1        0.0088
@<TRIPOS>BOND
     1     1     2    1
     2     2     3   ar
     3     3     4   ar
     4     4     5   ar
     5     5     6   ar
     6     6     7   ar
     7     7    13    1
     8    13    14    1
     9    14    15    1
    10    15    16   ar
    11    16    17   ar
    12    17    18   ar
    13    18    19    1
    14    18    20   ar
    15    20    21    1
    16    20    22   ar
    17     7     8   ar
    18     8     9   ar
    19     9    10   ar
    20    10     2   ar
    21     9     4   ar
    22    22    15   ar
    23     1    11    1
    24     1    12    1
@<TRIPOS>MOLECULE
*****
 22 24 0 0 0
SMALL
GASTEIGER

@<TRIPOS>ATOM
      1 N         143.3943  143.8778  171.1758 N.pl3   1  UNL1       -0.3375
      2 C         142.4365  142.9669  170.4667 C.ar    1  UNL1        0.1567
      3 N         141.1762  142.3922  171.0423 N.ar    1  UNL1       -0.2245
      4 C         140.5315  141.5408  169.9888 C.ar    1  UNL1        0.0893
      5 C         139.2711  140.7277  169.9881 C.ar    1  UNL1        0.0202
      6 C         138.8726  139.9631  168.7607 C.ar    1  UNL1        0.0077
      7 C         139.7345  140.0117  167.5340 C.ar    1  UNL1        0.0261
      8 C         140.9949  140.8249  167.5347 C.ar    1  UNL1        0.0142
      9 C         141.3934  141.5894  168.7622 C.ar    1  UNL1        0.0502
     10 S         142.5707  142.4708  169.0575 S.2     1  UNL1       -0.0520
     11 H         143.2187  144.1491  172.1057 H       1  UNL1        0.1442
     12 H         144.1985  144.2044  170.7112 H       1  UNL1        0.1442
     13 S         139.3359  139.2471  166.3066 S.3     1  UNL1       -0.1088
     14 C         138.3093  139.8131  165.3708 C.3     1  UNL1        0.0884
     15 C         138.6669  140.9562  164.4677 C.ar    1  UNL1       -0.0101
     16 C         139.1235  140.6888  163.0642 C.ar    1  UNL1       -0.0025
     17 C         139.4810  141.8318  162.1612 C.ar    1  UNL1        0.0120
     18 C         139.3820  143.2424  162.6617 C.ar    1  UNL1        0.0682
     19 CL        139.7396  144.3855  161.7586 Cl      1  UNL1       -0.0814
     20 C         138.9253  143.5099  164.0652 C.ar    1  UNL1        0.0679
     21 CL        138.8263  144.9204  164.5657 Cl      1  UNL1       -0.0814
     22 C         138.5678  142.3668  164.9682 C.ar    1  UNL1        0.0088
@<TRIPOS>BOND
     1     1     2    1
     2     2     3   ar
     3     3     4   ar
     4     4     5   ar
     5     5     6   ar
     6     6     7   ar
     7     7    13    1
     8    13    14    1
     9    14    15    1
    10    15    16   ar
    11    16    17   ar
    12    17    18   ar
    13    18    19    1
    14    18    20   ar
    15    20    21    1
    16    20    22   ar
    17     7     8   ar
    18     8     9   ar
    19     9    10   ar
    20    10     2   ar
    21     9     4   ar
    22    22    15   ar
    23     1    11    1
    24     1    12    1
@<TRIPOS>MOLECULE
*****
 22 24 0 0 0
SMALL
GASTEIGER

@<TRIPOS>ATOM
      1 N         139.1437  145.7469  161.7998 N.pl3   1  UNL1       -0.3375
      2 C         139.2213  144.5989  162.7622 C.ar    1  UNL1        0.1567
      3 N         140.3104  144.3619  163.7660 N.ar    1  UNL1       -0.2245
      4 C         139.9855  143.1029  164.5139 C.ar    1  UNL1        0.0893
      5 C         140.6976  142.3793  165.6181 C.ar    1  UNL1        0.0202
      6 C         140.1198  141.1146  166.1807 C.ar    1  UNL1        0.0077
      7 C         138.8299  140.5734  165.6391 C.ar    1  UNL1        0.0261
      8 C         138.1178  141.2970  164.5349 C.ar    1  UNL1        0.0142
      9 C         138.6956  142.5617  163.9723 C.ar    1  UNL1        0.0502
     10 S         138.2233  143.4863  162.8897 S.2     1  UNL1       -0.0520
     11 H         139.8515  146.4312  161.7919 H       1  UNL1        0.1442
     12 H         138.3851  145.8160  161.1761 H       1  UNL1        0.1442
     13 S         138.2521  139.3086  166.2017 S.3     1  UNL1       -0.1088
     14 C         138.5394  137.9935  165.5401 C.3     1  UNL1        0.0884
     15 C         139.4960  137.9275  164.3864 C.ar    1  UNL1       -0.0101
     16 C         140.9604  137.7215  164.6372 C.ar    1  UNL1       -0.0025
     17 C         141.9168  137.6554  163.4836 C.ar    1  UNL1        0.0120
     18 C         141.4088  137.7954  162.0792 C.ar    1  UNL1        0.0682
     19 CL        142.3654  137.7294  160.9256 Cl      1  UNL1       -0.0814
     20 C         139.9444  138.0015  161.8284 C.ar    1  UNL1        0.0679
     21 CL        139.4364  138.1415  160.4240 Cl      1  UNL1       -0.0814
     22 C         138.9880  138.0675  162.9820 C.ar    1  UNL1        0.0088
@<TRIPOS>BOND
     1     1     2    1
     2     2     3   ar
     3     3     4   ar
     4     4     5   ar
     5     5     6   ar
     6     6     7   ar
     7     7    13    1
     8    13    14    1
     9    14    15    1
    10    15    16   ar
    11    16    17   ar
    12    17    18   ar
    13    18    19    1
    14    18    20   ar
    15    20    21    1
    16    20    22   ar
    17     7     8   ar
    18     8     9   ar
    19     9    10   ar
    20    10     2   ar
    21     9     4   ar
    22    22    15   ar
    23     1    11    1
    24     1    12    1
@<TRIPOS>MOLECULE
*****
 22 24 0 0 0
SMALL
GASTEIGER

@<TRIPOS>ATOM
      1 N         145.2993  142.6948  161.4398 N.pl3   1  UNL1       -0.3375
      2 C         144.6313  141.9924  162.5845 C.ar    1  UNL1        0.1567
      3 N         144.9758  140.6280  163.1038 N.ar    1  UNL1       -0.2245
      4 C         144.0589  140.3234  164.2512 C.ar    1  UNL1        0.0893
      5 C         143.9360  139.1271  165.1476 C.ar    1  UNL1        0.0202
      6 C         142.9018  139.1070  166.2338 C.ar    1  UNL1        0.0077
      7 C         141.9906  140.2832  166.4237 C.ar    1  UNL1        0.0261
      8 C         142.1135  141.4796  165.5274 C.ar    1  UNL1        0.0142
      9 C         143.1476  141.4997  164.4411 C.ar    1  UNL1        0.0502
     10 S         143.5014  142.5311  163.4110 S.2     1  UNL1       -0.0520
     11 H         146.0365  142.2567  160.9562 H       1  UNL1        0.1442
     12 H         145.0006  143.5938  161.1721 H       1  UNL1        0.1442
     13 S         140.9564  140.2630  167.5101 S.3     1  UNL1       -0.1088
     14 C         139.5990  139.6834  167.2427 C.3     1  UNL1        0.0884
     15 C         139.1449  139.4568  165.8311 C.ar    1  UNL1       -0.0101
     16 C         139.3889  138.1337  165.1680 C.ar    1  UNL1       -0.0025
     17 C         138.9348  137.9072  163.7565 C.ar    1  UNL1        0.0120
     18 C         138.2369  139.0038  163.0080 C.ar    1  UNL1        0.0682
     19 CL        137.7828  138.7773  161.5964 Cl      1  UNL1       -0.0814
     20 C         137.9929  140.3270  163.6711 C.ar    1  UNL1        0.0679
     21 CL        137.2950  141.4236  162.9227 Cl      1  UNL1       -0.0814
     22 C         138.4470  140.5535  165.0827 C.ar    1  UNL1        0.0088
@<TRIPOS>BOND
     1     1     2    1
     2     2     3   ar
     3     3     4   ar
     4     4     5   ar
     5     5     6   ar
     6     6     7   ar
     7     7    13    1
     8    13    14    1
     9    14    15    1
    10    15    16   ar
    11    16    17   ar
    12    17    18   ar
    13    18    19    1
    14    18    20   ar
    15    20    21    1
    16    20    22   ar
    17     7     8   ar
    18     8     9   ar
    19     9    10   ar
    20    10     2   ar
    21     9     4   ar
    22    22    15   ar
    23     1    11    1
    24     1    12    1
@<TRIPOS>MOLECULE
*****
 22 24 0 0 0
SMALL
GASTEIGER

@<TRIPOS>ATOM
      1 N         143.9828  145.4658  162.6659 N.pl3   1  UNL1       -0.3375
      2 C         142.7715  144.6905  163.0921 C.ar    1  UNL1        0.1567
      3 N         141.6444  145.2092  163.9350 N.ar    1  UNL1       -0.2245
      4 C         140.6509  144.0997  164.1142 C.ar    1  UNL1        0.0893
      5 C         139.3453  144.0305  164.8494 C.ar    1  UNL1        0.0202
      6 C         138.5529  142.7569  164.8524 C.ar    1  UNL1        0.0077
      7 C         139.0660  141.5526  164.1202 C.ar    1  UNL1        0.0261
      8 C         140.3716  141.6217  163.3850 C.ar    1  UNL1        0.0142
      9 C         141.1640  142.8953  163.3820 C.ar    1  UNL1        0.0502
     10 S         142.4747  143.2605  162.7503 S.2     1  UNL1       -0.0520
     11 H         144.0887  146.4047  162.9422 H       1  UNL1        0.1442
     12 H         144.6720  145.0356  162.1098 H       1  UNL1        0.1442
     13 S         138.2735  140.2789  164.1233 S.3     1  UNL1       -0.1088
     14 C         138.6518  139.1624  165.0507 C.3     1  UNL1        0.0884
     15 C         139.6395  139.4053  166.1533 C.ar    1  UNL1       -0.0101
     16 C         141.1042  139.1952  165.9079 C.ar    1  UNL1       -0.0025
     17 C         142.0918  139.4381  167.0104 C.ar    1  UNL1        0.0120
     18 C         141.6146  139.8911  168.3584 C.ar    1  UNL1        0.0682
     19 CL        142.6022  140.1340  169.4610 Cl      1  UNL1       -0.0814
     20 C         140.1498  140.1012  168.6038 C.ar    1  UNL1        0.0679
     21 CL        139.6726  140.5543  169.9518 Cl      1  UNL1       -0.0814
     22 C         139.1623  139.8583  167.5013 C.ar    1  UNL1        0.0088
@<TRIPOS>BOND
     1     1     2    1
     2     2     3   ar
     3     3     4   ar
     4     4     5   ar
     5     5     6   ar
     6     6     7   ar
     7     7    13    1
     8    13    14    1
     9    14    15    1
    10    15    16   ar
    11    16    17   ar
    12    17    18   ar
    13    18    19    1
    14    18    20   ar
    15    20    21    1
    16    20    22   ar
    17     7     8   ar
    18     8     9   ar
    19     9    10   ar
    20    10     2   ar
    21     9     4   ar
    22    22    15   ar
    23     1    11    1
    24     1    12    1
