@<TRIPOS>MOLECULE
*****
 28 31 0 0 0
SMALL
GASTEIGER

@<TRIPOS>ATOM
      1 C         142.6228  139.7036  164.7937 C.ar    1  UNL1        0.0681
      2 C         143.8609  140.0958  164.0432 C.ar    1  UNL1        0.0208
      3 C         144.2336  139.3742  162.7821 C.ar    1  UNL1        0.0384
      4 C         143.3682  138.2605  162.2715 C.ar    1  UNL1        0.1386
      5 C         142.1301  137.8684  163.0220 C.ar    1  UNL1        0.0384
      6 C         141.7574  138.5899  164.2831 C.ar    1  UNL1        0.0208
      7 C         140.3809  143.8865  169.7664 C.3     1  UNL1        0.0326
      8 C         141.1317  142.5899  169.8381 C.ar    1  UNL1       -0.0040
      9 C         141.5097  142.0149  171.1709 C.ar    1  UNL1       -0.0028
     10 C         142.2605  140.7183  171.2427 C.ar    1  UNL1       -0.0001
     11 C         142.6333  139.9968  169.9816 C.ar    1  UNL1        0.0062
     12 C         142.2552  140.5718  168.6488 C.ar    1  UNL1        0.0739
     13 C         142.6280  139.8502  167.3876 C.ar    1  UNL1        0.2669
     14 O         143.3788  138.5536  167.4594 O.2     1  UNL1       -0.2665
     15 N         142.2500  140.4252  166.0548 N.ar    1  UNL1       -0.2626
     16 C         141.4992  141.7218  165.9831 C.ar    1  UNL1        0.1267
     17 C         141.1212  142.2968  164.6502 C.3     1  UNL1        0.0723
     18 N         141.1264  142.4434  167.2442 N.ar    1  UNL1       -0.2322
     19 C         141.5044  141.8684  168.5771 C.ar    1  UNL1        0.0832
     20 O         143.7410  137.5389  161.0104 O.3     1  UNL1       -0.4754
     21 C         142.9377  137.7484  159.7610 C.3     1  UNL1        0.2068
     22 C         142.1637  139.0192  159.5713 C.3     1  UNL1        0.0646
     23 C         140.6686  138.9768  159.4574 C.3     1  UNL1        0.0759
     24 N         139.8179  139.1610  160.6789 N.3     1  UNL1       -0.2726
     25 C         138.8443  138.1639  161.2339 C.3     1  UNL1        0.0721
     26 C         138.2160  138.7612  162.4580 C.3     1  UNL1        0.0188
     27 C         138.8013  140.1275  162.6596 C.3     1  UNL1        0.0188
     28 C         139.7913  140.3746  161.5601 C.3     1  UNL1        0.0721
@<TRIPOS>BOND
     1     7     8    1
     2     8     9   ar
     3     9    10   ar
     4    10    11   ar
     5    11    12   ar
     6    12    13   ar
     7    13    14    2
     8    13    15   ar
     9    15     1    1
    10     1     2   ar
    11     2     3   ar
    12     3     4   ar
    13     4    20    1
    14    20    21    1
    15    21    22    1
    16    22    23    1
    17    23    24    1
    18    24    25    1
    19    25    26    1
    20    26    27    1
    21    27    28    1
    22     4     5   ar
    23     5     6   ar
    24    15    16   ar
    25    16    17    1
    26    16    18   ar
    27    18    19   ar
    28    19     8   ar
    29    19    12   ar
    30     6     1   ar
    31    28    24    1
@<TRIPOS>MOLECULE
*****
 28 31 0 0 0
SMALL
GASTEIGER

@<TRIPOS>ATOM
      1 C         140.6120  139.3439  164.0503 C.ar    1  UNL1        0.0681
      2 C         140.1472  140.2059  162.9141 C.ar    1  UNL1        0.0208
      3 C         140.4783  139.8269  161.5011 C.ar    1  UNL1        0.0384
      4 C         141.2741  138.5859  161.2242 C.ar    1  UNL1        0.1386
      5 C         141.7388  137.7239  162.3604 C.ar    1  UNL1        0.0384
      6 C         141.4078  138.1030  163.7735 C.ar    1  UNL1        0.0208
      7 C         138.2233  140.1124  170.4498 C.3     1  UNL1        0.0326
      8 C         139.2878  140.8598  169.7027 C.ar    1  UNL1       -0.0040
      9 C         140.0212  141.9861  170.3685 C.ar    1  UNL1       -0.0028
     10 C         141.0857  142.7335  169.6214 C.ar    1  UNL1       -0.0001
     11 C         141.4168  142.3545  168.2083 C.ar    1  UNL1        0.0062
     12 C         140.6833  141.2282  167.5424 C.ar    1  UNL1        0.0739
     13 C         141.0144  140.8492  166.1293 C.ar    1  UNL1        0.2669
     14 O         142.0789  141.5966  165.3821 O.2     1  UNL1       -0.2665
     15 N         140.2809  139.7229  165.4634 N.ar    1  UNL1       -0.2626
     16 C         139.2164  138.9756  166.2106 C.ar    1  UNL1        0.1267
     17 C         138.4830  137.8492  165.5447 C.3     1  UNL1        0.0723
     18 N         138.8854  139.3545  167.6237 N.ar    1  UNL1       -0.2322
     19 C         139.6188  140.4809  168.2896 C.ar    1  UNL1        0.0832
     20 O         141.6051  138.2069  159.8111 O.3     1  UNL1       -0.4754
     21 C         142.4936  139.0902  158.9863 C.3     1  UNL1        0.2068
     22 C         143.7891  139.5903  159.5534 C.3     1  UNL1        0.0646
     23 C         143.8355  140.9075  160.2695 C.3     1  UNL1        0.0759
     24 N         144.4431  140.9961  161.6381 N.3     1  UNL1       -0.2726
     25 C         145.1537  142.1860  162.2119 C.3     1  UNL1        0.0721
     26 C         145.5966  141.8358  163.6015 C.3     1  UNL1        0.0188
     27 C         145.1597  140.4293  163.8865 C.3     1  UNL1        0.0188
     28 C         144.4469  139.9104  162.6730 C.3     1  UNL1        0.0721
@<TRIPOS>BOND
     1     7     8    1
     2     8     9   ar
     3     9    10   ar
     4    10    11   ar
     5    11    12   ar
     6    12    13   ar
     7    13    14    2
     8    13    15   ar
     9    15     1    1
    10     1     2   ar
    11     2     3   ar
    12     3     4   ar
    13     4    20    1
    14    20    21    1
    15    21    22    1
    16    22    23    1
    17    23    24    1
    18    24    25    1
    19    25    26    1
    20    26    27    1
    21    27    28    1
    22     4     5   ar
    23     5     6   ar
    24    15    16   ar
    25    16    17    1
    26    16    18   ar
    27    18    19   ar
    28    19     8   ar
    29    19    12   ar
    30     6     1   ar
    31    28    24    1
@<TRIPOS>MOLECULE
*****
 28 31 0 0 0
SMALL
GASTEIGER

@<TRIPOS>ATOM
      1 C         139.0389  139.9915  164.6984 C.ar    1  UNL1        0.0681
      2 C         138.2447  141.0815  164.0418 C.ar    1  UNL1        0.0208
      3 C         137.6539  140.8630  162.6805 C.ar    1  UNL1        0.0384
      4 C         137.8571  139.5545  161.9759 C.ar    1  UNL1        0.1386
      5 C         138.6513  138.4645  162.6326 C.ar    1  UNL1        0.0384
      6 C         139.2421  138.6830  163.9938 C.ar    1  UNL1        0.0208
      7 C         140.7489  140.2608  171.3508 C.3     1  UNL1        0.0326
      8 C         141.4025  140.8655  170.1436 C.ar    1  UNL1       -0.0040
      9 C         142.6469  141.6886  170.2978 C.ar    1  UNL1       -0.0028
     10 C         143.3004  142.2933  169.0906 C.ar    1  UNL1       -0.0001
     11 C         142.7096  142.0748  167.7293 C.ar    1  UNL1        0.0062
     12 C         141.4652  141.2517  167.5752 C.ar    1  UNL1        0.0739
     13 C         140.8742  141.0332  166.2139 C.ar    1  UNL1        0.2669
     14 O         141.5278  141.6379  165.0067 O.2     1  UNL1       -0.2665
     15 N         139.6298  140.2101  166.0598 N.ar    1  UNL1       -0.2626
     16 C         138.9762  139.6054  167.2669 C.ar    1  UNL1        0.1267
     17 C         137.7317  138.7822  167.1127 C.3     1  UNL1        0.0723
     18 N         139.5671  139.8238  168.6282 N.ar    1  UNL1       -0.2322
     19 C         140.8116  140.6470  168.7824 C.ar    1  UNL1        0.0832
     20 O         137.2662  139.3360  160.6146 O.3     1  UNL1       -0.4754
     21 C         137.7715  140.1237  159.4424 C.3     1  UNL1        0.2068
     22 C         139.0923  139.7792  158.8206 C.3     1  UNL1        0.0646
     23 C         140.3480  140.4335  159.3161 C.3     1  UNL1        0.0759
     24 N         141.1683  139.7709  160.3828 N.3     1  UNL1       -0.2726
     25 C         141.6742  140.4202  161.6369 C.3     1  UNL1        0.0721
     26 C         142.4453  139.3933  162.4119 C.3     1  UNL1        0.0188
     27 C         142.4161  138.1093  161.6369 C.3     1  UNL1        0.0188
     28 C         141.6268  138.3427  160.3828 C.3     1  UNL1        0.0721
@<TRIPOS>BOND
     1     7     8    1
     2     8     9   ar
     3     9    10   ar
     4    10    11   ar
     5    11    12   ar
     6    12    13   ar
     7    13    14    2
     8    13    15   ar
     9    15     1    1
    10     1     2   ar
    11     2     3   ar
    12     3     4   ar
    13     4    20    1
    14    20    21    1
    15    21    22    1
    16    22    23    1
    17    23    24    1
    18    24    25    1
    19    25    26    1
    20    26    27    1
    21    27    28    1
    22     4     5   ar
    23     5     6   ar
    24    15    16   ar
    25    16    17    1
    26    16    18   ar
    27    18    19   ar
    28    19     8   ar
    29    19    12   ar
    30     6     1   ar
    31    28    24    1
@<TRIPOS>MOLECULE
*****
 28 31 0 0 0
SMALL
GASTEIGER

@<TRIPOS>ATOM
      1 C         139.0268  140.0955  164.5829 C.ar    1  UNL1        0.0681
      2 C         139.4728  138.9567  163.7145 C.ar    1  UNL1        0.0208
      3 C         138.8855  138.7831  162.3452 C.ar    1  UNL1        0.0384
      4 C         137.8522  139.7482  161.8444 C.ar    1  UNL1        0.1386
      5 C         137.4061  140.8869  162.7129 C.ar    1  UNL1        0.0384
      6 C         137.9934  141.0606  164.0821 C.ar    1  UNL1        0.0208
      7 C         140.7332  140.1258  171.2416 C.3     1  UNL1        0.0326
      8 C         141.3758  140.7901  170.0602 C.ar    1  UNL1       -0.0040
      9 C         142.6056  141.6281  170.2480 C.ar    1  UNL1       -0.0028
     10 C         143.2482  142.2924  169.0666 C.ar    1  UNL1       -0.0001
     11 C         142.6609  142.1188  167.6973 C.ar    1  UNL1        0.0062
     12 C         141.4311  141.2808  167.5095 C.ar    1  UNL1        0.0739
     13 C         140.8438  141.1071  166.1401 C.ar    1  UNL1        0.2669
     14 O         141.4864  141.7714  164.9587 O.2     1  UNL1       -0.2665
     15 N         139.6140  140.2692  165.9523 N.ar    1  UNL1       -0.2626
     16 C         138.9714  139.6048  167.1337 C.ar    1  UNL1        0.1267
     17 C         137.7416  138.7668  166.9458 C.3     1  UNL1        0.0723
     18 N         139.5587  139.7785  168.5030 N.ar    1  UNL1       -0.2322
     19 C         140.7885  140.6165  168.6909 C.ar    1  UNL1        0.0832
     20 O         137.2649  139.5745  160.4751 O.3     1  UNL1       -0.4754
     21 C         138.0231  140.0436  159.2688 C.3     1  UNL1        0.2068
     22 C         139.0044  141.1714  159.3916 C.3     1  UNL1        0.0646
     23 C         138.5160  142.5890  159.4366 C.3     1  UNL1        0.0759
     24 N         139.2755  143.6194  160.2185 N.3     1  UNL1       -0.2726
     25 C         140.1824  144.6684  159.6465 C.3     1  UNL1        0.0721
     26 C         140.7288  145.4791  160.7841 C.3     1  UNL1        0.0188
     27 C         140.1596  144.9311  162.0592 C.3     1  UNL1        0.0188
     28 C         139.2614  143.7817  161.7096 C.3     1  UNL1        0.0721
@<TRIPOS>BOND
     1     7     8    1
     2     8     9   ar
     3     9    10   ar
     4    10    11   ar
     5    11    12   ar
     6    12    13   ar
     7    13    14    2
     8    13    15   ar
     9    15     1    1
    10     1     2   ar
    11     2     3   ar
    12     3     4   ar
    13     4    20    1
    14    20    21    1
    15    21    22    1
    16    22    23    1
    17    23    24    1
    18    24    25    1
    19    25    26    1
    20    26    27    1
    21    27    28    1
    22     4     5   ar
    23     5     6   ar
    24    15    16   ar
    25    16    17    1
    26    16    18   ar
    27    18    19   ar
    28    19     8   ar
    29    19    12   ar
    30     6     1   ar
    31    28    24    1
@<TRIPOS>MOLECULE
*****
 28 31 0 0 0
SMALL
GASTEIGER

@<TRIPOS>ATOM
      1 C         142.0167  140.2127  164.2587 C.ar    1  UNL1        0.0681
      2 C         141.3167  140.6371  163.0018 C.ar    1  UNL1        0.0208
      3 C         141.9770  140.4339  161.6704 C.ar    1  UNL1        0.0384
      4 C         143.3375  139.8065  161.5960 C.ar    1  UNL1        0.1386
      5 C         144.0375  139.3822  162.8529 C.ar    1  UNL1        0.0384
      6 C         143.3772  139.5853  164.1842 C.ar    1  UNL1        0.0208
      7 C         138.3503  140.0439  170.0707 C.3     1  UNL1        0.0326
      8 C         139.3753  141.0251  169.5844 C.ar    1  UNL1       -0.0040
      9 C         139.7400  142.2095  170.4296 C.ar    1  UNL1       -0.0028
     10 C         140.7650  143.1907  169.9433 C.ar    1  UNL1       -0.0001
     11 C         141.4254  142.9877  168.6119 C.ar    1  UNL1        0.0062
     12 C         141.0607  141.8033  167.7668 C.ar    1  UNL1        0.0739
     13 C         141.7211  141.6002  166.4353 C.ar    1  UNL1        0.2669
     14 O         142.7461  142.5815  165.9491 O.2     1  UNL1       -0.2665
     15 N         141.3564  140.4159  165.5902 N.ar    1  UNL1       -0.2626
     16 C         140.3313  139.4346  166.0764 C.ar    1  UNL1        0.1267
     17 C         139.9666  138.2502  165.2312 C.3     1  UNL1        0.0723
     18 N         139.6710  139.6377  167.4078 N.ar    1  UNL1       -0.2322
     19 C         140.0356  140.8221  168.2530 C.ar    1  UNL1        0.0832
     20 O         143.9978  139.6033  160.2645 O.3     1  UNL1       -0.4754
     21 C         143.5591  140.4106  159.0788 C.3     1  UNL1        0.2068
     22 C         144.1948  141.7403  158.8001 C.3     1  UNL1        0.0646
     23 C         143.5007  143.0046  159.2123 C.3     1  UNL1        0.0759
     24 N         143.4709  143.4071  160.6570 N.3     1  UNL1       -0.2726
     25 C         144.5677  143.1871  161.6563 C.3     1  UNL1        0.0721
     26 C         144.1138  143.7443  162.9729 C.3     1  UNL1        0.0188
     27 C         142.7364  144.3086  162.7873 C.3     1  UNL1        0.0188
     28 C         142.3391  144.1002  161.3560 C.3     1  UNL1        0.0721
@<TRIPOS>BOND
     1     7     8    1
     2     8     9   ar
     3     9    10   ar
     4    10    11   ar
     5    11    12   ar
     6    12    13   ar
     7    13    14    2
     8    13    15   ar
     9    15     1    1
    10     1     2   ar
    11     2     3   ar
    12     3     4   ar
    13     4    20    1
    14    20    21    1
    15    21    22    1
    16    22    23    1
    17    23    24    1
    18    24    25    1
    19    25    26    1
    20    26    27    1
    21    27    28    1
    22     4     5   ar
    23     5     6   ar
    24    15    16   ar
    25    16    17    1
    26    16    18   ar
    27    18    19   ar
    28    19     8   ar
    29    19    12   ar
    30     6     1   ar
    31    28    24    1
@<TRIPOS>MOLECULE
*****
 28 31 0 0 0
SMALL
GASTEIGER

@<TRIPOS>ATOM
      1 C         142.6659  141.9311  164.0237 C.ar    1  UNL1        0.0681
      2 C         141.8827  141.3696  162.8742 C.ar    1  UNL1        0.0208
      3 C         142.1092  141.8914  161.4863 C.ar    1  UNL1        0.0384
      4 C         143.1189  142.9747  161.2478 C.ar    1  UNL1        0.1386
      5 C         143.9021  143.5363  162.3972 C.ar    1  UNL1        0.0384
      6 C         143.6756  143.0145  163.7852 C.ar    1  UNL1        0.0208
      7 C         142.4900  138.6207  170.0453 C.3     1  UNL1        0.0326
      8 C         141.7600  139.8439  169.5755 C.ar    1  UNL1       -0.0040
      9 C         140.8035  140.5454  170.4937 C.ar    1  UNL1       -0.0028
     10 C         140.0735  141.7687  170.0239 C.ar    1  UNL1       -0.0001
     11 C         140.3000  142.2905  168.6360 C.ar    1  UNL1        0.0062
     12 C         141.2564  141.5890  167.7178 C.ar    1  UNL1        0.0739
     13 C         141.4829  142.1108  166.3298 C.ar    1  UNL1        0.2669
     14 O         140.7529  143.3341  165.8601 O.2     1  UNL1       -0.2665
     15 N         142.4394  141.4093  165.4117 N.ar    1  UNL1       -0.2626
     16 C         143.1694  140.1861  165.8814 C.ar    1  UNL1        0.1267
     17 C         144.1259  139.4846  164.9632 C.3     1  UNL1        0.0723
     18 N         142.9430  139.6643  167.2694 N.ar    1  UNL1       -0.2322
     19 C         141.9864  140.3657  168.1876 C.ar    1  UNL1        0.0832
     20 O         143.3454  143.4965  159.8598 O.3     1  UNL1       -0.4754
     21 C         142.1981  144.0568  159.0727 C.3     1  UNL1        0.2068
     22 C         141.1030  144.8055  159.7728 C.3     1  UNL1        0.0646
     23 C         139.7367  144.1981  159.8922 C.3     1  UNL1        0.0759
     24 N         139.0950  144.0544  161.2404 N.3     1  UNL1       -0.2726
     25 C         139.2046  145.0269  162.3772 C.3     1  UNL1        0.0721
     26 C         138.4085  144.4865  163.5279 C.3     1  UNL1        0.0188
     27 C         137.8068  143.1800  163.1023 C.3     1  UNL1        0.0188
     28 C         138.2312  142.9130  161.6885 C.3     1  UNL1        0.0721
@<TRIPOS>BOND
     1     7     8    1
     2     8     9   ar
     3     9    10   ar
     4    10    11   ar
     5    11    12   ar
     6    12    13   ar
     7    13    14    2
     8    13    15   ar
     9    15     1    1
    10     1     2   ar
    11     2     3   ar
    12     3     4   ar
    13     4    20    1
    14    20    21    1
    15    21    22    1
    16    22    23    1
    17    23    24    1
    18    24    25    1
    19    25    26    1
    20    26    27    1
    21    27    28    1
    22     4     5   ar
    23     5     6   ar
    24    15    16   ar
    25    16    17    1
    26    16    18   ar
    27    18    19   ar
    28    19     8   ar
    29    19    12   ar
    30     6     1   ar
    31    28    24    1
@<TRIPOS>MOLECULE
*****
 28 31 0 0 0
SMALL
GASTEIGER

@<TRIPOS>ATOM
      1 C         140.7409  139.5504  164.5796 C.ar    1  UNL1        0.0681
      2 C         140.9459  138.1032  164.2426 C.ar    1  UNL1        0.0208
      3 C         140.4655  137.5640  162.9280 C.ar    1  UNL1        0.0384
      4 C         139.7801  138.4719  161.9503 C.ar    1  UNL1        0.1386
      5 C         139.5751  139.9191  162.2873 C.ar    1  UNL1        0.0384
      6 C         140.0555  140.4583  163.6019 C.ar    1  UNL1        0.0208
      7 C         143.9908  142.3989  169.9251 C.3     1  UNL1        0.0326
      8 C         142.6625  141.7075  169.8384 C.ar    1  UNL1       -0.0040
      9 C         141.8146  141.5554  171.0663 C.ar    1  UNL1       -0.0028
     10 C         140.4862  140.8640  170.9796 C.ar    1  UNL1       -0.0001
     11 C         140.0058  140.3247  169.6650 C.ar    1  UNL1        0.0062
     12 C         140.8537  140.4768  168.4370 C.ar    1  UNL1        0.0739
     13 C         140.3733  139.9375  167.1223 C.ar    1  UNL1        0.2669
     14 O         139.0450  139.2461  167.0356 O.2     1  UNL1       -0.2665
     15 N         141.2213  140.0897  165.8944 N.ar    1  UNL1       -0.2626
     16 C         142.5496  140.7811  165.9811 C.ar    1  UNL1        0.1267
     17 C         143.3975  140.9332  164.7531 C.3     1  UNL1        0.0723
     18 N         143.0300  141.3204  167.2957 N.ar    1  UNL1       -0.2322
     19 C         142.1821  141.1683  168.5237 C.ar    1  UNL1        0.0832
     20 O         139.2997  137.9326  160.6355 O.3     1  UNL1       -0.4754
     21 C         139.3658  138.7877  159.4049 C.3     1  UNL1        0.2068
     22 C         140.2475  138.3867  158.2596 C.3     1  UNL1        0.0646
     23 C         141.6919  138.7913  158.2476 C.3     1  UNL1        0.0759
     24 N         142.4954  138.7408  159.5132 N.3     1  UNL1       -0.2726
     25 C         143.0422  137.5037  160.1618 C.3     1  UNL1        0.0721
     26 C         143.7779  137.9169  161.4019 C.3     1  UNL1        0.0188
     27 C         143.6858  139.4095  161.5198 C.3     1  UNL1        0.0188
     28 C         142.8932  139.9186  160.3525 C.3     1  UNL1        0.0721
@<TRIPOS>BOND
     1     7     8    1
     2     8     9   ar
     3     9    10   ar
     4    10    11   ar
     5    11    12   ar
     6    12    13   ar
     7    13    14    2
     8    13    15   ar
     9    15     1    1
    10     1     2   ar
    11     2     3   ar
    12     3     4   ar
    13     4    20    1
    14    20    21    1
    15    21    22    1
    16    22    23    1
    17    23    24    1
    18    24    25    1
    19    25    26    1
    20    26    27    1
    21    27    28    1
    22     4     5   ar
    23     5     6   ar
    24    15    16   ar
    25    16    17    1
    26    16    18   ar
    27    18    19   ar
    28    19     8   ar
    29    19    12   ar
    30     6     1   ar
    31    28    24    1
@<TRIPOS>MOLECULE
*****
 28 31 0 0 0
SMALL
GASTEIGER

@<TRIPOS>ATOM
      1 C         139.7571  141.7888  164.3700 C.ar    1  UNL1        0.0681
      2 C         138.2706  141.8495  164.1791 C.ar    1  UNL1        0.0208
      3 C         137.7008  142.2435  162.8487 C.ar    1  UNL1        0.0384
      4 C         138.6176  142.5768  161.7092 C.ar    1  UNL1        0.1386
      5 C         140.1041  142.5160  161.9001 C.ar    1  UNL1        0.0384
      6 C         140.6739  142.1220  163.2305 C.ar    1  UNL1        0.0208
      7 C         142.5551  138.8212  169.9031 C.3     1  UNL1        0.0326
      8 C         142.0364  140.2127  169.6918 C.ar    1  UNL1       -0.0040
      9 C         142.0874  141.2101  170.8109 C.ar    1  UNL1       -0.0028
     10 C         141.5687  142.6016  170.5996 C.ar    1  UNL1       -0.0001
     11 C         140.9989  142.9957  169.2692 C.ar    1  UNL1        0.0062
     12 C         140.9478  141.9982  168.1501 C.ar    1  UNL1        0.0739
     13 C         140.3780  142.3922  166.8196 C.ar    1  UNL1        0.2669
     14 O         139.8593  143.7837  166.6083 O.2     1  UNL1       -0.2665
     15 N         140.3269  141.3948  165.7005 N.ar    1  UNL1       -0.2626
     16 C         140.8456  140.0033  165.9119 C.ar    1  UNL1        0.1267
     17 C         140.7945  139.0058  164.7927 C.3     1  UNL1        0.0723
     18 N         141.4154  139.6092  167.2423 N.ar    1  UNL1       -0.2322
     19 C         141.4666  140.6067  168.3614 C.ar    1  UNL1        0.0832
     20 O         138.0478  142.9708  160.3787 O.3     1  UNL1       -0.4754
     21 C         138.8844  142.8512  159.1394 C.3     1  UNL1        0.2068
     22 C         139.0536  141.5173  158.4746 C.3     1  UNL1        0.0646
     23 C         138.1309  140.3856  158.8181 C.3     1  UNL1        0.0759
     24 N         138.4482  139.4837  159.9738 N.3     1  UNL1       -0.2726
     25 C         139.7621  138.8065  160.2290 C.3     1  UNL1        0.0721
     26 C         139.6333  138.0048  161.4901 C.3     1  UNL1        0.0188
     27 C         138.2396  138.1864  162.0145 C.3     1  UNL1        0.0188
     28 C         137.5072  139.1004  161.0773 C.3     1  UNL1        0.0721
@<TRIPOS>BOND
     1     7     8    1
     2     8     9   ar
     3     9    10   ar
     4    10    11   ar
     5    11    12   ar
     6    12    13   ar
     7    13    14    2
     8    13    15   ar
     9    15     1    1
    10     1     2   ar
    11     2     3   ar
    12     3     4   ar
    13     4    20    1
    14    20    21    1
    15    21    22    1
    16    22    23    1
    17    23    24    1
    18    24    25    1
    19    25    26    1
    20    26    27    1
    21    27    28    1
    22     4     5   ar
    23     5     6   ar
    24    15    16   ar
    25    16    17    1
    26    16    18   ar
    27    18    19   ar
    28    19     8   ar
    29    19    12   ar
    30     6     1   ar
    31    28    24    1
@<TRIPOS>MOLECULE
*****
 28 31 0 0 0
SMALL
GASTEIGER

@<TRIPOS>ATOM
      1 C         139.2149  141.2155  164.6254 C.ar    1  UNL1        0.0681
      2 C         137.9826  141.9573  164.2000 C.ar    1  UNL1        0.0208
      3 C         137.6641  142.1085  162.7420 C.ar    1  UNL1        0.0384
      4 C         138.5779  141.5179  161.7095 C.ar    1  UNL1        0.1386
      5 C         139.8102  140.7760  162.1350 C.ar    1  UNL1        0.0384
      6 C         140.1287  140.6248  163.5929 C.ar    1  UNL1        0.0208
      7 C         139.9202  139.4601  171.2339 C.3     1  UNL1        0.0326
      8 C         140.4889  140.6106  170.4574 C.ar    1  UNL1       -0.0040
      9 C         141.3760  141.6098  171.1388 C.ar    1  UNL1       -0.0028
     10 C         141.9447  142.7603  170.3623 C.ar    1  UNL1       -0.0001
     11 C         141.6262  142.9116  168.9044 C.ar    1  UNL1        0.0062
     12 C         140.7391  141.9123  168.2229 C.ar    1  UNL1        0.0739
     13 C         140.4206  142.0635  166.7649 C.ar    1  UNL1        0.2669
     14 O         140.9892  143.2140  165.9884 O.2     1  UNL1       -0.2665
     15 N         139.5334  141.0643  166.0835 N.ar    1  UNL1       -0.2626
     16 C         138.9647  139.9138  166.8600 C.ar    1  UNL1        0.1267
     17 C         138.0775  138.9145  166.1785 C.3     1  UNL1        0.0723
     18 N         139.2832  139.7625  168.3179 N.ar    1  UNL1       -0.2322
     19 C         140.1704  140.7618  168.9994 C.ar    1  UNL1        0.0832
     20 O         138.2594  141.6691  160.2515 O.3     1  UNL1       -0.4754
     21 C         139.0675  142.6031  159.4002 C.3     1  UNL1        0.2068
     22 C         139.6921  143.8229  160.0100 C.3     1  UNL1        0.0646
     23 C         141.1784  143.8881  160.2021 C.3     1  UNL1        0.0759
     24 N         141.7458  144.3313  161.5179 N.3     1  UNL1       -0.2726
     25 C         143.0876  143.9531  162.0717 C.3     1  UNL1        0.0721
     26 C         143.2422  144.6186  163.4071 C.3     1  UNL1        0.0188
     27 C         141.9959  145.4082  163.6785 C.3     1  UNL1        0.0188
     28 C         141.0712  145.2306  162.5109 C.3     1  UNL1        0.0721
@<TRIPOS>BOND
     1     7     8    1
     2     8     9   ar
     3     9    10   ar
     4    10    11   ar
     5    11    12   ar
     6    12    13   ar
     7    13    14    2
     8    13    15   ar
     9    15     1    1
    10     1     2   ar
    11     2     3   ar
    12     3     4   ar
    13     4    20    1
    14    20    21    1
    15    21    22    1
    16    22    23    1
    17    23    24    1
    18    24    25    1
    19    25    26    1
    20    26    27    1
    21    27    28    1
    22     4     5   ar
    23     5     6   ar
    24    15    16   ar
    25    16    17    1
    26    16    18   ar
    27    18    19   ar
    28    19     8   ar
    29    19    12   ar
    30     6     1   ar
    31    28    24    1
