@<TRIPOS>MOLECULE
*****
 34 37 0 0 0
SMALL
GASTEIGER

@<TRIPOS>ATOM
      1 C         140.2220  139.8407  160.5349 C.ar    1  UNL1        0.1665
      2 N         139.6242  139.1872  161.7455 N.ar    1  UNL1       -0.1866
      3 C         139.1600  140.0267  162.8986 C.ar    1  UNL1        0.2814
      4 O         138.5622  139.3733  164.1093 O.2     1  UNL1       -0.2651
      5 C         139.2935  141.5197  162.8411 C.ar    1  UNL1        0.0699
      6 C         138.8292  142.3592  163.9943 C.ar    1  UNL1        0.0096
      7 C         138.9626  143.8521  163.9367 C.ar    1  UNL1        0.0777
      8 C         139.5604  144.5055  162.7260 C.ar    1  UNL1        0.0797
      9 C         140.0247  143.6661  161.5729 C.ar    1  UNL1        0.2960
     10 C         139.8912  142.1731  161.6304 C.ar    1  UNL1        0.1059
     11 S         140.3554  141.3336  160.4774 S.2     1  UNL1       -0.0466
     12 N         141.6149  137.3222  157.0754 N.3     1  UNL1       -0.2698
     13 C         142.6017  137.8058  158.0964 C.3     1  UNL1        0.0939
     14 C         142.1374  138.6453  159.2495 C.3     1  UNL1        0.1100
     15 N         140.6863  139.0012  159.3817 N.pl3   1  UNL1       -0.2852
     16 C         139.6994  138.5176  158.3608 C.3     1  UNL1        0.1100
     17 C         140.1637  137.6781  157.2076 C.3     1  UNL1        0.0939
     18 C         142.0792  136.4828  155.9223 C.3     1  UNL1        0.0722
     19 N         142.9428  130.5909  156.6570 N.2     1  UNL1       -0.0917
     20 C         142.7269  132.0639  156.4734 C.2     1  UNL1        0.0748
     21 C         143.5434  133.0454  157.2606 C.3     1  UNL1        0.0447
     22 C         143.3275  134.5185  157.0769 C.3     1  UNL1        0.0074
     23 C         142.2951  135.0098  156.1060 C.3     1  UNL1        0.0167
     24 C         141.4785  134.0282  155.3188 C.3     1  UNL1        0.0074
     25 C         141.6944  132.5552  155.5025 C.3     1  UNL1        0.0447
     26 C         143.5963  129.1076  158.6875 C.3     1  UNL1        0.2885
     27 O         143.9752  130.0995  157.6279 O.2     1  UNL1       -0.3737
     28 C         138.4984  144.6916  165.0898 C.3     1  UNL1        0.4188
     29 F         138.0340  145.5311  166.2430 F       1  UNL1       -0.1659
     30 F         137.1048  144.1663  164.9112 F       1  UNL1       -0.1659
     31 F         139.8920  145.2169  165.2684 F       1  UNL1       -0.1659
     32 N         140.6224  144.3195  160.3623 N.pl3   1  UNL1        0.0814
     33 O         139.7544  144.6557  159.1859 O.2     1  UNL1        0.0415
     34 O         142.0880  144.6368  160.3279 O.co2   1  UNL1       -0.5760
@<TRIPOS>UNITY_ATOM_ATTR
32 1
charge 1
34 1
charge -1
@<TRIPOS>BOND
     1    26    27    1
     2    27    19    1
     3    19    20    2
     4    20    21    1
     5    21    22    1
     6    22    23    1
     7    23    18    1
     8    18    12    1
     9    12    13    1
    10    13    14    1
    11    14    15    1
    12    15     1    1
    13     1     2   ar
    14     2     3   ar
    15     3     4    2
    16     3     5   ar
    17     5     6   ar
    18     6     7   ar
    19     7    28    1
    20    28    29    1
    21    28    30    1
    22    28    31    1
    23     7     8   ar
    24     8     9   ar
    25     9    32    1
    26    32    33    2
    27    32    34    1
    28     9    10   ar
    29    10    11   ar
    30    15    16    1
    31    16    17    1
    32    23    24    1
    33    24    25    1
    34    25    20    1
    35    17    12    1
    36    11     1   ar
    37    10     5   ar
@<TRIPOS>MOLECULE
*****
 34 37 0 0 0
SMALL
GASTEIGER

@<TRIPOS>ATOM
      1 C         140.7850  138.8829  162.8846 C.ar    1  UNL1        0.1665
      2 N         139.8388  137.9789  163.6178 N.ar    1  UNL1       -0.1866
      3 C         139.4174  138.3115  165.0184 C.ar    1  UNL1        0.2814
      4 O         138.4712  137.4075  165.7516 O.2     1  UNL1       -0.2651
      5 C         139.9423  139.5480  165.6859 C.ar    1  UNL1        0.0699
      6 C         139.5209  139.8806  167.0866 C.ar    1  UNL1        0.0096
      7 C         140.0457  141.1171  167.7541 C.ar    1  UNL1        0.0777
      8 C         140.9920  142.0210  167.0209 C.ar    1  UNL1        0.0797
      9 C         141.4133  141.6885  165.6203 C.ar    1  UNL1        0.2960
     10 C         140.8885  140.4520  164.9528 C.ar    1  UNL1        0.1059
     11 S         141.3098  140.1194  163.5522 S.2     1  UNL1       -0.0466
     12 N         142.0492  137.8853  158.6826 N.3     1  UNL1       -0.2698
     13 C         142.9994  137.6691  159.8231 C.3     1  UNL1        0.0939
     14 C         142.5779  138.0016  161.2237 C.3     1  UNL1        0.1100
     15 N         141.2064  138.5503  161.4839 N.pl3   1  UNL1       -0.2852
     16 C         140.2563  138.7665  160.3436 C.3     1  UNL1        0.1100
     17 C         140.6777  138.4340  158.9429 C.3     1  UNL1        0.0939
     18 C         142.4706  137.5527  157.2820 C.3     1  UNL1        0.0722
     19 N         142.3197  131.8662  155.3740 N.2     1  UNL1       -0.0917
     20 C         142.3574  133.2878  155.8510 C.2     1  UNL1        0.0748
     21 C         143.3073  133.6883  156.9406 C.3     1  UNL1        0.0447
     22 C         143.3451  135.1100  157.4176 C.3     1  UNL1        0.0074
     23 C         142.4329  136.1311  156.8050 C.3     1  UNL1        0.0167
     24 C         141.4830  135.7306  155.7153 C.3     1  UNL1        0.0074
     25 C         141.4453  134.3090  155.2384 C.3     1  UNL1        0.0447
     26 C         144.5308  130.5032  155.3190 C.3     1  UNL1        0.2885
     27 O         143.2318  130.8451  155.9866 O.2     1  UNL1       -0.3737
     28 C         139.6244  141.4496  169.1548 C.3     1  UNL1        0.4188
     29 F         139.2030  141.7823  170.5555 F       1  UNL1       -0.1659
     30 F         140.3515  142.7583  169.0628 F       1  UNL1       -0.1659
     31 F         138.8972  140.1409  169.2467 F       1  UNL1       -0.1659
     32 N         142.3595  142.5924  164.8872 N.pl3   1  UNL1        0.0814
     33 O         143.8393  142.3671  164.9847 O.2     1  UNL1        0.0415
     34 O         141.8260  143.7217  164.0564 O.co2   1  UNL1       -0.5760
@<TRIPOS>UNITY_ATOM_ATTR
32 1
charge 1
34 1
charge -1
@<TRIPOS>BOND
     1    26    27    1
     2    27    19    1
     3    19    20    2
     4    20    21    1
     5    21    22    1
     6    22    23    1
     7    23    18    1
     8    18    12    1
     9    12    13    1
    10    13    14    1
    11    14    15    1
    12    15     1    1
    13     1     2   ar
    14     2     3   ar
    15     3     4    2
    16     3     5   ar
    17     5     6   ar
    18     6     7   ar
    19     7    28    1
    20    28    29    1
    21    28    30    1
    22    28    31    1
    23     7     8   ar
    24     8     9   ar
    25     9    32    1
    26    32    33    2
    27    32    34    1
    28     9    10   ar
    29    10    11   ar
    30    15    16    1
    31    16    17    1
    32    23    24    1
    33    24    25    1
    34    25    20    1
    35    17    12    1
    36    11     1   ar
    37    10     5   ar
@<TRIPOS>MOLECULE
*****
 34 37 0 0 0
SMALL
GASTEIGER

@<TRIPOS>ATOM
      1 C         141.4324  144.2031  160.2788 C.ar    1  UNL1        0.1665
      2 N         142.8503  144.0782  160.7519 N.ar    1  UNL1       -0.1866
      3 C         143.1360  143.6417  162.1583 C.ar    1  UNL1        0.2814
      4 O         144.5540  143.5168  162.6314 O.2     1  UNL1       -0.2651
      5 C         142.0037  143.3301  163.0915 C.ar    1  UNL1        0.0699
      6 C         142.2895  142.8936  164.4979 C.ar    1  UNL1        0.0096
      7 C         141.1573  142.5821  165.4312 C.ar    1  UNL1        0.0777
      8 C         139.7393  142.7070  164.9580 C.ar    1  UNL1        0.0797
      9 C         139.4536  143.1434  163.5517 C.ar    1  UNL1        0.2960
     10 C         140.5858  143.4550  162.6184 C.ar    1  UNL1        0.1059
     11 S         140.3001  143.8915  161.2121 S.2     1  UNL1       -0.0466
     12 N         140.5752  145.5126  156.0597 N.3     1  UNL1       -0.2698
     13 C         141.8138  145.9920  156.7569 C.3     1  UNL1        0.0939
     14 C         142.0995  145.5556  158.1632 C.3     1  UNL1        0.1100
     15 N         141.1466  144.6396  158.8724 N.pl3   1  UNL1       -0.2852
     16 C         139.9080  144.1601  158.1754 C.3     1  UNL1        0.1100
     17 C         139.6223  144.5966  156.7689 C.3     1  UNL1        0.0939
     18 C         140.2895  145.9491  154.6534 C.3     1  UNL1        0.0722
     19 N         139.2068  151.7303  153.4681 N.2     1  UNL1       -0.0917
     20 C         139.4775  150.2850  153.7644 C.2     1  UNL1        0.0748
     21 C         138.9203  149.6572  155.0075 C.3     1  UNL1        0.0447
     22 C         139.1909  148.2118  155.3038 C.3     1  UNL1        0.0074
     23 C         140.0188  147.3944  154.3571 C.3     1  UNL1        0.0167
     24 C         140.5760  148.0223  153.1139 C.3     1  UNL1        0.0074
     25 C         140.3054  149.4676  152.8176 C.3     1  UNL1        0.0447
     26 C         138.1615  154.0085  154.1517 C.3     1  UNL1        0.2885
     27 O         138.3789  152.5478  154.4148 O.2     1  UNL1       -0.3737
     28 C         141.4429  142.1456  166.8375 C.3     1  UNL1        0.4188
     29 F         141.7287  141.7091  168.2439 F       1  UNL1       -0.1659
     30 F         142.9123  142.1360  166.5360 F       1  UNL1       -0.1659
     31 F         139.9736  142.1552  167.1390 F       1  UNL1       -0.1659
     32 N         138.0357  143.2683  163.0786 N.pl3   1  UNL1        0.0814
     33 O         137.2403  142.0372  162.7595 O.2     1  UNL1        0.0415
     34 O         137.4130  144.6243  162.9246 O.co2   1  UNL1       -0.5760
@<TRIPOS>UNITY_ATOM_ATTR
32 1
charge 1
34 1
charge -1
@<TRIPOS>BOND
     1    26    27    1
     2    27    19    1
     3    19    20    2
     4    20    21    1
     5    21    22    1
     6    22    23    1
     7    23    18    1
     8    18    12    1
     9    12    13    1
    10    13    14    1
    11    14    15    1
    12    15     1    1
    13     1     2   ar
    14     2     3   ar
    15     3     4    2
    16     3     5   ar
    17     5     6   ar
    18     6     7   ar
    19     7    28    1
    20    28    29    1
    21    28    30    1
    22    28    31    1
    23     7     8   ar
    24     8     9   ar
    25     9    32    1
    26    32    33    2
    27    32    34    1
    28     9    10   ar
    29    10    11   ar
    30    15    16    1
    31    16    17    1
    32    23    24    1
    33    24    25    1
    34    25    20    1
    35    17    12    1
    36    11     1   ar
    37    10     5   ar
@<TRIPOS>MOLECULE
*****
 34 37 0 0 0
SMALL
GASTEIGER

@<TRIPOS>ATOM
      1 C         142.2009  139.1430  163.4722 C.ar    1  UNL1        0.1665
      2 N         143.2572  138.4673  164.2955 N.ar    1  UNL1       -0.1866
      3 C         143.2439  138.6017  165.7893 C.ar    1  UNL1        0.2814
      4 O         144.3002  137.9260  166.6127 O.2     1  UNL1       -0.2651
      5 C         142.1743  139.4118  166.4600 C.ar    1  UNL1        0.0699
      6 C         142.1610  139.5462  167.9539 C.ar    1  UNL1        0.0096
      7 C         141.0914  140.3562  168.6246 C.ar    1  UNL1        0.0777
      8 C         140.0351  141.0319  167.8013 C.ar    1  UNL1        0.0797
      9 C         140.0484  140.8975  166.3074 C.ar    1  UNL1        0.2960
     10 C         141.1180  140.0874  165.6368 C.ar    1  UNL1        0.1059
     11 S         141.1314  139.9530  164.1429 S.2     1  UNL1       -0.0466
     12 N         142.2408  138.7398  158.9904 N.3     1  UNL1       -0.2698
     13 C         140.9604  138.5522  159.7491 C.3     1  UNL1        0.0939
     14 C         140.9471  138.6866  161.2429 C.3     1  UNL1        0.1100
     15 N         142.2142  139.0086  161.9783 N.pl3   1  UNL1       -0.2852
     16 C         143.4946  139.1962  161.2197 C.3     1  UNL1        0.1100
     17 C         143.5079  139.0618  159.7258 C.3     1  UNL1        0.0939
     18 C         142.2540  138.6054  157.4966 C.3     1  UNL1        0.0722
     19 N         141.7487  133.1881  154.9673 N.2     1  UNL1       -0.0917
     20 C         141.8750  134.5424  155.5996 C.2     1  UNL1        0.0748
     21 C         143.0345  134.8434  156.5023 C.3     1  UNL1        0.0447
     22 C         143.1609  136.1978  157.1346 C.3     1  UNL1        0.0074
     23 C         142.1277  137.2511  156.8643 C.3     1  UNL1        0.0167
     24 C         140.9681  136.9500  155.9616 C.3     1  UNL1        0.0074
     25 C         140.8418  135.5957  155.3293 C.3     1  UNL1        0.0447
     26 C         142.4393  130.9497  156.0911 C.3     1  UNL1        0.2885
     27 O         142.7819  132.1348  155.2377 O.2     1  UNL1       -0.3737
     28 C         141.0781  140.4907  170.1185 C.3     1  UNL1        0.4188
     29 F         141.0648  140.6250  171.6124 F       1  UNL1       -0.1659
     30 F         141.5112  139.0607  170.2510 F       1  UNL1       -0.1659
     31 F         140.6450  141.9206  169.9859 F       1  UNL1       -0.1659
     32 N         138.9922  141.5732  165.4842 N.pl3   1  UNL1        0.0814
     33 O         137.8442  140.7774  164.9374 O.2     1  UNL1        0.0415
     34 O         139.0839  143.0446  165.2076 O.co2   1  UNL1       -0.5760
@<TRIPOS>UNITY_ATOM_ATTR
32 1
charge 1
34 1
charge -1
@<TRIPOS>BOND
     1    26    27    1
     2    27    19    1
     3    19    20    2
     4    20    21    1
     5    21    22    1
     6    22    23    1
     7    23    18    1
     8    18    12    1
     9    12    13    1
    10    13    14    1
    11    14    15    1
    12    15     1    1
    13     1     2   ar
    14     2     3   ar
    15     3     4    2
    16     3     5   ar
    17     5     6   ar
    18     6     7   ar
    19     7    28    1
    20    28    29    1
    21    28    30    1
    22    28    31    1
    23     7     8   ar
    24     8     9   ar
    25     9    32    1
    26    32    33    2
    27    32    34    1
    28     9    10   ar
    29    10    11   ar
    30    15    16    1
    31    16    17    1
    32    23    24    1
    33    24    25    1
    34    25    20    1
    35    17    12    1
    36    11     1   ar
    37    10     5   ar
@<TRIPOS>MOLECULE
*****
 34 37 0 0 0
SMALL
GASTEIGER

@<TRIPOS>ATOM
      1 C         140.3614  140.7737  159.5378 C.ar    1  UNL1        0.1665
      2 N         140.2002  142.2090  159.1334 N.ar    1  UNL1       -0.1866
      3 C         139.8116  143.2368  160.1544 C.ar    1  UNL1        0.2814
      4 O         139.6504  144.6723  159.7500 O.2     1  UNL1       -0.2651
      5 C         139.5843  142.8292  161.5800 C.ar    1  UNL1        0.0699
      6 C         139.1957  143.8571  162.6010 C.ar    1  UNL1        0.0096
      7 C         138.9683  143.4495  164.0266 C.ar    1  UNL1        0.0777
      8 C         139.1295  142.0140  164.4310 C.ar    1  UNL1        0.0797
      9 C         139.5181  140.9863  163.4100 C.ar    1  UNL1        0.2960
     10 C         139.7455  141.3939  161.9844 C.ar    1  UNL1        0.1059
     11 S         140.1341  140.3661  160.9634 S.2     1  UNL1       -0.0466
     12 N         141.5272  137.6901  156.4746 N.3     1  UNL1       -0.2698
     13 C         140.1454  137.6825  157.0583 C.3     1  UNL1        0.0939
     14 C         139.7568  138.7103  158.0793 C.3     1  UNL1        0.1100
     15 N         140.7500  139.7458  158.5168 N.pl3   1  UNL1       -0.2852
     16 C         142.1318  139.7534  157.9331 C.3     1  UNL1        0.1100
     17 C         142.5204  138.7255  156.9121 C.3     1  UNL1        0.0939
     18 C         141.9157  136.6622  155.4536 C.3     1  UNL1        0.0722
     19 N         143.2409  131.0708  157.1797 N.2     1  UNL1       -0.0917
     20 C         142.9096  132.4687  156.7482 C.2     1  UNL1        0.0748
     21 C         141.8855  132.7000  155.6770 C.3     1  UNL1        0.0447
     22 C         141.5541  134.0979  155.2454 C.3     1  UNL1        0.0074
     23 C         142.2470  135.2644  155.8851 C.3     1  UNL1        0.0167
     24 C         143.2712  135.0330  156.9564 C.3     1  UNL1        0.0074
     25 C         143.6025  133.6351  157.3879 C.3     1  UNL1        0.0447
     26 C         143.3160  128.6535  156.2303 C.3     1  UNL1        0.2885
     27 O         142.5480  129.9043  156.5400 O.2     1  UNL1       -0.3737
     28 C         138.5797  144.4773  165.0477 C.3     1  UNL1        0.4188
     29 F         138.1912  145.5052  166.0688 F       1  UNL1       -0.1659
     30 F         139.9581  145.0651  164.9805 F       1  UNL1       -0.1659
     31 F         137.2014  143.8895  165.1148 F       1  UNL1       -0.1659
     32 N         139.6793  139.5509  163.8145 N.pl3   1  UNL1        0.0814
     33 O         141.0162  139.0456  164.2700 O.2     1  UNL1        0.0415
     34 O         138.5037  138.6207  163.7635 O.co2   1  UNL1       -0.5760
@<TRIPOS>UNITY_ATOM_ATTR
32 1
charge 1
34 1
charge -1
@<TRIPOS>BOND
     1    26    27    1
     2    27    19    1
     3    19    20    2
     4    20    21    1
     5    21    22    1
     6    22    23    1
     7    23    18    1
     8    18    12    1
     9    12    13    1
    10    13    14    1
    11    14    15    1
    12    15     1    1
    13     1     2   ar
    14     2     3   ar
    15     3     4    2
    16     3     5   ar
    17     5     6   ar
    18     6     7   ar
    19     7    28    1
    20    28    29    1
    21    28    30    1
    22    28    31    1
    23     7     8   ar
    24     8     9   ar
    25     9    32    1
    26    32    33    2
    27    32    34    1
    28     9    10   ar
    29    10    11   ar
    30    15    16    1
    31    16    17    1
    32    23    24    1
    33    24    25    1
    34    25    20    1
    35    17    12    1
    36    11     1   ar
    37    10     5   ar
@<TRIPOS>MOLECULE
*****
 34 37 0 0 0
SMALL
GASTEIGER

@<TRIPOS>ATOM
      1 C         141.8461  143.4854  159.8205 C.ar    1  UNL1        0.1665
      2 N         142.6478  144.2570  160.8265 N.ar    1  UNL1       -0.1866
      3 C         143.2872  143.5448  161.9814 C.ar    1  UNL1        0.2814
      4 O         144.0889  144.3164  162.9874 O.2     1  UNL1       -0.2651
      5 C         143.1249  142.0611  162.1304 C.ar    1  UNL1        0.0699
      6 C         143.7643  141.3489  163.2854 C.ar    1  UNL1        0.0096
      7 C         143.6020  139.8652  163.4345 C.ar    1  UNL1        0.0777
      8 C         142.8003  139.0936  162.4284 C.ar    1  UNL1        0.0797
      9 C         142.1609  139.8058  161.2735 C.ar    1  UNL1        0.2960
     10 C         142.3232  141.2895  161.1245 C.ar    1  UNL1        0.1059
     11 S         141.6838  142.0017  159.9695 S.2     1  UNL1       -0.0466
     12 N         139.9278  145.6219  156.3555 N.3     1  UNL1       -0.2698
     13 C         141.1485  146.1986  157.0094 C.3     1  UNL1        0.0939
     14 C         141.7878  145.4864  158.1644 C.3     1  UNL1        0.1100
     15 N         141.2066  144.1976  158.6655 N.pl3   1  UNL1       -0.2852
     16 C         139.9860  143.6209  158.0117 C.3     1  UNL1        0.1100
     17 C         139.3466  144.3331  156.8566 C.3     1  UNL1        0.0939
     18 C         139.2884  146.3341  155.2006 C.3     1  UNL1        0.0722
     19 N         139.5334  152.3193  154.8595 N.2     1  UNL1       -0.0917
     20 C         139.4722  150.8230  154.9448 C.2     1  UNL1        0.0748
     21 C         138.6259  150.1657  155.9944 C.3     1  UNL1        0.0447
     22 C         138.5647  148.6693  156.0797 C.3     1  UNL1        0.0074
     23 C         139.3497  147.8304  155.1153 C.3     1  UNL1        0.0167
     24 C         140.1960  148.4878  154.0657 C.3     1  UNL1        0.0074
     25 C         140.2572  149.9841  153.9804 C.3     1  UNL1        0.0447
     26 C         138.2178  154.4945  155.3961 C.3     1  UNL1        0.2885
     27 O         138.7484  153.1582  155.8239 O.2     1  UNL1       -0.3737
     28 C         144.2414  139.1530  164.5894 C.3     1  UNL1        0.4188
     29 F         144.8808  138.4408  165.7444 F       1  UNL1       -0.1659
     30 F         142.9887  138.3526  164.7894 F       1  UNL1       -0.1659
     31 F         145.4941  139.9534  164.3894 F       1  UNL1       -0.1659
     32 N         141.3592  139.0342  160.2676 N.pl3   1  UNL1        0.0814
     33 O         139.8841  138.8487  160.4671 O.2     1  UNL1        0.0415
     34 O         142.0325  138.4482  159.0621 O.co2   1  UNL1       -0.5760
@<TRIPOS>UNITY_ATOM_ATTR
32 1
charge 1
34 1
charge -1
@<TRIPOS>BOND
     1    26    27    1
     2    27    19    1
     3    19    20    2
     4    20    21    1
     5    21    22    1
     6    22    23    1
     7    23    18    1
     8    18    12    1
     9    12    13    1
    10    13    14    1
    11    14    15    1
    12    15     1    1
    13     1     2   ar
    14     2     3   ar
    15     3     4    2
    16     3     5   ar
    17     5     6   ar
    18     6     7   ar
    19     7    28    1
    20    28    29    1
    21    28    30    1
    22    28    31    1
    23     7     8   ar
    24     8     9   ar
    25     9    32    1
    26    32    33    2
    27    32    34    1
    28     9    10   ar
    29    10    11   ar
    30    15    16    1
    31    16    17    1
    32    23    24    1
    33    24    25    1
    34    25    20    1
    35    17    12    1
    36    11     1   ar
    37    10     5   ar
@<TRIPOS>MOLECULE
*****
 34 37 0 0 0
SMALL
GASTEIGER

@<TRIPOS>ATOM
      1 C         140.4347  141.9159  159.5990 C.ar    1  UNL1        0.1665
      2 N         141.6735  141.0754  159.6932 N.ar    1  UNL1       -0.1866
      3 C         142.6784  141.3394  160.7752 C.ar    1  UNL1        0.2814
      4 O         143.9173  140.4989  160.8694 O.2     1  UNL1       -0.2651
      5 C         142.4444  142.4438  161.7629 C.ar    1  UNL1        0.0699
      6 C         143.4493  142.7077  162.8448 C.ar    1  UNL1        0.0096
      7 C         143.2153  143.8121  163.8325 C.ar    1  UNL1        0.0777
      8 C         141.9765  144.6526  163.7383 C.ar    1  UNL1        0.0797
      9 C         140.9716  144.3887  162.6563 C.ar    1  UNL1        0.2960
     10 C         141.2056  143.2843  161.6686 C.ar    1  UNL1        0.1059
     11 S         140.2008  143.0203  160.5867 S.2     1  UNL1       -0.0466
     12 N         137.4200  141.1242  156.3532 N.3     1  UNL1       -0.2698
     13 C         137.3469  142.3919  157.1518 C.3     1  UNL1        0.0939
     14 C         138.3518  142.6558  158.2337 C.3     1  UNL1        0.1100
     15 N         139.4298  141.6520  158.5171 N.pl3   1  UNL1       -0.2852
     16 C         139.5029  140.3843  157.7186 C.3     1  UNL1        0.1100
     17 C         138.4980  140.1204  156.6366 C.3     1  UNL1        0.0939
     18 C         136.4151  140.8604  155.2713 C.3     1  UNL1        0.0722
     19 N         130.5957  140.3533  156.6411 N.2     1  UNL1       -0.0917
     20 C         132.0505  140.4801  156.2986 C.2     1  UNL1        0.0748
     21 C         133.0833  139.8042  157.1510 C.3     1  UNL1        0.0447
     22 C         134.5382  139.9309  156.8085 C.3     1  UNL1        0.0074
     23 C         134.9603  140.7336  155.6138 C.3     1  UNL1        0.0167
     24 C         133.9275  141.4095  154.7614 C.3     1  UNL1        0.0074
     25 C         132.4726  141.2828  155.1039 C.3     1  UNL1        0.0447
     26 C         128.7167  139.3143  158.1040 C.3     1  UNL1        0.2885
     27 O         130.1736  139.5506  157.8359 O.2     1  UNL1       -0.3737
     28 C         144.2202  144.0760  164.9144 C.3     1  UNL1        0.4188
     29 F         145.2251  144.3400  165.9964 F       1  UNL1       -0.1659
     30 F         144.0829  145.5515  164.6820 F       1  UNL1       -0.1659
     31 F         144.3575  142.6006  165.1469 F       1  UNL1       -0.1659
     32 N         139.7328  145.2291  162.5621 N.pl3   1  UNL1        0.0814
     33 O         139.7467  146.4985  161.7630 O.2     1  UNL1        0.0415
     34 O         138.4801  144.8003  163.2670 O.co2   1  UNL1       -0.5760
@<TRIPOS>UNITY_ATOM_ATTR
32 1
charge 1
34 1
charge -1
@<TRIPOS>BOND
     1    26    27    1
     2    27    19    1
     3    19    20    2
     4    20    21    1
     5    21    22    1
     6    22    23    1
     7    23    18    1
     8    18    12    1
     9    12    13    1
    10    13    14    1
    11    14    15    1
    12    15     1    1
    13     1     2   ar
    14     2     3   ar
    15     3     4    2
    16     3     5   ar
    17     5     6   ar
    18     6     7   ar
    19     7    28    1
    20    28    29    1
    21    28    30    1
    22    28    31    1
    23     7     8   ar
    24     8     9   ar
    25     9    32    1
    26    32    33    2
    27    32    34    1
    28     9    10   ar
    29    10    11   ar
    30    15    16    1
    31    16    17    1
    32    23    24    1
    33    24    25    1
    34    25    20    1
    35    17    12    1
    36    11     1   ar
    37    10     5   ar
@<TRIPOS>MOLECULE
*****
 34 37 0 0 0
SMALL
GASTEIGER

@<TRIPOS>ATOM
      1 C         140.8394  140.3046  162.0621 C.ar    1  UNL1        0.1665
      2 N         139.5110  140.6140  162.6861 N.ar    1  UNL1       -0.1866
      3 C         139.4469  141.1582  164.0824 C.ar    1  UNL1        0.2814
      4 O         138.1184  141.4677  164.7065 O.2     1  UNL1       -0.2651
      5 C         140.7112  141.3930  164.8546 C.ar    1  UNL1        0.0699
      6 C         140.6470  141.9372  166.2510 C.ar    1  UNL1        0.0096
      7 C         141.9113  142.1720  167.0233 C.ar    1  UNL1        0.0777
      8 C         143.2398  141.8625  166.3992 C.ar    1  UNL1        0.0797
      9 C         143.3039  141.3183  165.0029 C.ar    1  UNL1        0.2960
     10 C         142.0396  141.0835  164.2306 C.ar    1  UNL1        0.1059
     11 S         142.1037  140.5393  162.8343 S.2     1  UNL1       -0.0466
     12 N         141.0319  138.6718  157.8731 N.3     1  UNL1       -0.2698
     13 C         139.9023  138.2809  158.7793 C.3     1  UNL1        0.0939
     14 C         139.8382  138.8251  160.1756 C.3     1  UNL1        0.1100
     15 N         140.9036  139.7603  160.6657 N.pl3   1  UNL1       -0.2852
     16 C         142.0332  140.1513  159.7596 C.3     1  UNL1        0.1100
     17 C         142.0974  139.6070  158.3632 C.3     1  UNL1        0.0939
     18 C         141.0961  138.1276  156.4768 C.3     1  UNL1        0.0722
     19 N         143.4580  132.7035  155.4769 N.2     1  UNL1       -0.0917
     20 C         142.8675  134.0595  155.7268 C.2     1  UNL1        0.0748
     21 C         143.5846  135.0389  156.6079 C.3     1  UNL1        0.0447
     22 C         142.9942  136.3950  156.8579 C.3     1  UNL1        0.0074
     23 C         141.6865  136.7716  156.2268 C.3     1  UNL1        0.0167
     24 C         140.9694  135.7920  155.3457 C.3     1  UNL1        0.0074
     25 C         141.5599  134.4360  155.0957 C.3     1  UNL1        0.0447
     26 C         144.7834  131.6022  157.4212 C.3     1  UNL1        0.2885
     27 O         144.7656  132.3269  156.1080 O.2     1  UNL1       -0.3737
     28 C         141.8472  142.7162  168.4196 C.3     1  UNL1        0.4188
     29 F         141.7830  143.2605  169.8159 F       1  UNL1       -0.1659
     30 F         140.3645  142.8962  168.2813 F       1  UNL1       -0.1659
     31 F         143.3299  142.5362  168.5578 F       1  UNL1       -0.1659
     32 N         144.6324  141.0089  164.3789 N.pl3   1  UNL1        0.0814
     33 O         145.1603  139.6049  164.3961 O.2     1  UNL1        0.0415
     34 O         145.4330  142.1033  163.7377 O.co2   1  UNL1       -0.5760
@<TRIPOS>UNITY_ATOM_ATTR
32 1
charge 1
34 1
charge -1
@<TRIPOS>BOND
     1    26    27    1
     2    27    19    1
     3    19    20    2
     4    20    21    1
     5    21    22    1
     6    22    23    1
     7    23    18    1
     8    18    12    1
     9    12    13    1
    10    13    14    1
    11    14    15    1
    12    15     1    1
    13     1     2   ar
    14     2     3   ar
    15     3     4    2
    16     3     5   ar
    17     5     6   ar
    18     6     7   ar
    19     7    28    1
    20    28    29    1
    21    28    30    1
    22    28    31    1
    23     7     8   ar
    24     8     9   ar
    25     9    32    1
    26    32    33    2
    27    32    34    1
    28     9    10   ar
    29    10    11   ar
    30    15    16    1
    31    16    17    1
    32    23    24    1
    33    24    25    1
    34    25    20    1
    35    17    12    1
    36    11     1   ar
    37    10     5   ar
@<TRIPOS>MOLECULE
*****
 34 37 0 0 0
SMALL
GASTEIGER

@<TRIPOS>ATOM
      1 C         142.3655  143.4657  163.0912 C.ar    1  UNL1        0.1665
      2 N         143.5502  144.0497  163.8020 N.ar    1  UNL1       -0.1866
      3 C         143.8898  143.5966  165.1910 C.ar    1  UNL1        0.2814
      4 O         145.0746  144.1807  165.9018 O.2     1  UNL1       -0.2651
      5 C         143.0446  142.5595  165.8692 C.ar    1  UNL1        0.0699
      6 C         143.3842  142.1063  167.2582 C.ar    1  UNL1        0.0096
      7 C         142.5391  141.0692  167.9364 C.ar    1  UNL1        0.0777
      8 C         141.3543  140.4851  167.2256 C.ar    1  UNL1        0.0797
      9 C         141.0148  140.9382  165.8366 C.ar    1  UNL1        0.2960
     10 C         141.8599  141.9754  165.1584 C.ar    1  UNL1        0.1059
     11 S         141.5204  142.4285  163.7694 S.2     1  UNL1       -0.0466
     12 N         141.3468  144.8249  158.9240 N.3     1  UNL1       -0.2698
     13 C         142.3953  143.7730  159.1346 C.3     1  UNL1        0.0939
     14 C         142.7348  143.3200  160.5236 C.3     1  UNL1        0.1100
     15 N         142.0259  143.9188  161.7021 N.pl3   1  UNL1       -0.2852
     16 C         140.9775  144.9706  161.4916 C.3     1  UNL1        0.1100
     17 C         140.6379  145.4237  160.1025 C.3     1  UNL1        0.0939
     18 C         141.0072  145.2780  157.5350 C.3     1  UNL1        0.0722
     19 N         136.0962  143.1693  154.8082 N.2     1  UNL1       -0.0917
     20 C         137.3240  143.6965  155.4899 C.2     1  UNL1        0.0748
     21 C         137.9990  142.8826  156.5538 C.3     1  UNL1        0.0447
     22 C         139.2268  143.4097  157.2355 C.3     1  UNL1        0.0074
     23 C         139.7795  144.7508  156.8533 C.3     1  UNL1        0.0167
     24 C         139.1044  145.5647  155.7894 C.3     1  UNL1        0.0074
     25 C         137.8767  145.0375  155.1077 C.3     1  UNL1        0.0447
     26 C         135.8217  140.6300  154.3319 C.3     1  UNL1        0.2885
     27 O         135.5435  141.8282  155.1904 O.2     1  UNL1       -0.3737
     28 C         142.8786  140.6161  169.3254 C.3     1  UNL1        0.4188
     29 F         143.2182  140.1630  170.7145 F       1  UNL1       -0.1659
     30 F         143.7401  141.8299  169.5108 F       1  UNL1       -0.1659
     31 F         142.0171  139.4022  169.1401 F       1  UNL1       -0.1659
     32 N         139.8300  140.3541  165.1258 N.pl3   1  UNL1        0.0814
     33 O         140.0119  139.1920  164.1949 O.2     1  UNL1        0.0415
     34 O         138.4635  140.9321  165.3458 O.co2   1  UNL1       -0.5760
@<TRIPOS>UNITY_ATOM_ATTR
32 1
charge 1
34 1
charge -1
@<TRIPOS>BOND
     1    26    27    1
     2    27    19    1
     3    19    20    2
     4    20    21    1
     5    21    22    1
     6    22    23    1
     7    23    18    1
     8    18    12    1
     9    12    13    1
    10    13    14    1
    11    14    15    1
    12    15     1    1
    13     1     2   ar
    14     2     3   ar
    15     3     4    2
    16     3     5   ar
    17     5     6   ar
    18     6     7   ar
    19     7    28    1
    20    28    29    1
    21    28    30    1
    22    28    31    1
    23     7     8   ar
    24     8     9   ar
    25     9    32    1
    26    32    33    2
    27    32    34    1
    28     9    10   ar
    29    10    11   ar
    30    15    16    1
    31    16    17    1
    32    23    24    1
    33    24    25    1
    34    25    20    1
    35    17    12    1
    36    11     1   ar
    37    10     5   ar
