@<TRIPOS>MOLECULE
*****
 30 33 0 0 0
SMALL
GASTEIGER

@<TRIPOS>ATOM
      1 O         140.7506  137.8841  157.2726 O.2     1  UNL1       -0.2522
      2 C         142.1485  138.2726  157.6536 C.2     1  UNL1        0.3078
      3 N         143.3070  137.4237  157.2212 N.am    1  UNL1       -0.2681
      4 N         142.3877  139.5100  158.4670 N.am    1  UNL1       -0.2605
      5 C         141.2291  140.3589  158.8994 C.3     1  UNL1        0.1165
      6 C         141.4683  141.5963  159.7127 C.3     1  UNL1        0.1150
      7 N         142.8661  141.9848  160.0937 N.am    1  UNL1       -0.2749
      8 C         143.1053  143.2222  160.9071 C.2     1  UNL1        0.2414
      9 O         144.5032  143.6107  161.2881 O.2     1  UNL1       -0.2734
     10 C         144.0247  141.1359  159.6613 C.3     1  UNL1        0.1150
     11 C         143.7855  139.8985  158.8480 C.3     1  UNL1        0.1165
     12 H         144.2245  137.6787  157.4712 H       1  UNL1        0.1564
     13 C         143.0678  136.1862  156.4078 C.ar    1  UNL1        0.0525
     14 C         142.8276  136.2942  154.9311 C.ar    1  UNL1        0.0156
     15 C         142.5884  135.0568  154.1178 C.ar    1  UNL1        0.0135
     16 C         142.5895  133.7114  154.7811 C.ar    1  UNL1        0.0683
     17 CL        142.3503  132.4739  153.9677 Cl      1  UNL1       -0.0814
     18 C         142.8298  133.6035  156.2578 C.ar    1  UNL1        0.0694
     19 CL        142.8309  132.2581  156.9211 Cl      1  UNL1       -0.0813
     20 C         143.0690  134.8409  157.0711 C.ar    1  UNL1        0.0270
     21 C         141.9467  144.0711  161.3395 C.3     1  UNL1        0.1479
     22 C         141.3213  143.8569  162.6859 C.3     1  UNL1        0.0974
     23 N         140.1627  144.7058  163.1183 N.3     1  UNL1       -0.2713
     24 C         139.6295  145.7690  162.2043 C.3     1  UNL1        0.0894
     25 C         140.2550  145.9832  160.8578 C.3     1  UNL1        0.0865
     26 N         141.4136  145.1342  160.4255 N.3     1  UNL1       -0.2890
     27 H         142.1873  145.7695  160.2299 H       1  UNL1        0.1237
     28 C         139.5372  144.4916  164.4648 C.3     1  UNL1        0.0577
     29 C         139.5102  143.7833  165.7867 C.3     1  UNL1        0.0173
     30 C         138.4808  144.8288  165.4749 C.3     1  UNL1        0.0173
@<TRIPOS>BOND
     1     1     2    2
     2     2     3   am
     3     3    13    1
     4    13    14   ar
     5    14    15   ar
     6    15    16   ar
     7    16    17    1
     8    16    18   ar
     9    18    19    1
    10    18    20   ar
    11     2     4   am
    12     4     5    1
    13     5     6    1
    14     6     7    1
    15     7     8   am
    16     8     9    2
    17    21     8    1
    18    21    22    1
    19    22    23    1
    20    23    28    1
    21    28    29    1
    22    29    30    1
    23    23    24    1
    24    24    25    1
    25    25    26    1
    26     7    10    1
    27    10    11    1
    28    20    13   ar
    29    11     4    1
    30    26    21    1
    31    30    28    1
    32     3    12    1
    33    26    27    1
@<TRIPOS>MOLECULE
*****
 30 33 0 0 0
SMALL
GASTEIGER

@<TRIPOS>ATOM
      1 O         138.4677  142.6348  164.2181 O.2     1  UNL1       -0.2522
      2 C         139.9159  142.6684  163.8288 C.2     1  UNL1        0.3078
      3 N         140.9666  142.2417  164.8106 N.am    1  UNL1       -0.2681
      4 N         140.3135  143.1286  162.4576 N.am    1  UNL1       -0.2605
      5 C         139.2628  143.5553  161.4757 C.3     1  UNL1        0.1165
      6 C         139.6604  144.0156  160.1046 C.3     1  UNL1        0.1150
      7 N         141.1086  144.0491  159.7153 N.am    1  UNL1       -0.2749
      8 C         141.5061  144.5093  158.3440 C.2     1  UNL1        0.2414
      9 O         142.9543  144.5429  157.9547 O.2     1  UNL1       -0.2734
     10 C         142.1592  143.6224  160.6971 C.3     1  UNL1        0.1150
     11 C         141.7617  143.1622  162.0682 C.3     1  UNL1        0.1165
     12 H         141.9171  142.2637  164.5551 H       1  UNL1        0.1564
     13 C         140.5691  141.7814  166.1818 C.ar    1  UNL1        0.0525
     14 C         140.1102  140.3694  166.3953 C.ar    1  UNL1        0.0156
     15 C         139.7127  139.9092  167.7665 C.ar    1  UNL1        0.0135
     16 C         139.7741  140.8610  168.9242 C.ar    1  UNL1        0.0683
     17 CL        139.3765  140.4008  170.2954 Cl      1  UNL1       -0.0814
     18 C         140.2330  142.2730  168.7107 C.ar    1  UNL1        0.0694
     19 CL        140.2944  143.2248  169.8684 Cl      1  UNL1       -0.0813
     20 C         140.6305  142.7332  167.3396 C.ar    1  UNL1        0.0270
     21 C         140.4555  144.9360  157.3622 C.3     1  UNL1        0.1479
     22 C         140.2329  146.3939  157.0882 C.3     1  UNL1        0.0974
     23 N         139.1822  146.8206  156.1064 N.3     1  UNL1       -0.2713
     24 C         138.3541  145.7894  155.3985 C.3     1  UNL1        0.0894
     25 C         138.5767  144.3316  155.6726 C.3     1  UNL1        0.0865
     26 N         139.6274  143.9049  156.6544 N.3     1  UNL1       -0.2890
     27 H         140.2766  143.3029  156.1479 H       1  UNL1        0.1237
     28 C         138.9596  148.2785  155.8323 C.3     1  UNL1        0.0577
     29 C         139.1310  149.4740  154.9428 C.3     1  UNL1        0.0173
     30 C         138.4027  149.6080  156.2472 C.3     1  UNL1        0.0173
@<TRIPOS>BOND
     1     1     2    2
     2     2     3   am
     3     3    13    1
     4    13    14   ar
     5    14    15   ar
     6    15    16   ar
     7    16    17    1
     8    16    18   ar
     9    18    19    1
    10    18    20   ar
    11     2     4   am
    12     4     5    1
    13     5     6    1
    14     6     7    1
    15     7     8   am
    16     8     9    2
    17    21     8    1
    18    21    22    1
    19    22    23    1
    20    23    28    1
    21    28    29    1
    22    29    30    1
    23    23    24    1
    24    24    25    1
    25    25    26    1
    26     7    10    1
    27    10    11    1
    28    20    13   ar
    29    11     4    1
    30    26    21    1
    31    30    28    1
    32     3    12    1
    33    26    27    1
@<TRIPOS>MOLECULE
*****
 30 33 0 0 0
SMALL
GASTEIGER

@<TRIPOS>ATOM
      1 O         144.3006  139.4876  164.1387 O.2     1  UNL1       -0.2522
      2 C         142.8852  139.6723  163.6778 C.2     1  UNL1        0.3078
      3 N         141.8613  140.2470  164.6113 N.am    1  UNL1       -0.2681
      4 N         142.4936  139.2821  162.2833 N.am    1  UNL1       -0.2605
      5 C         143.5174  138.7074  161.3498 C.3     1  UNL1        0.1165
      6 C         143.1258  138.3173  159.9554 C.3     1  UNL1        0.1150
      7 N         141.7104  138.5019  159.4945 N.am    1  UNL1       -0.2749
      8 C         141.3188  138.1118  158.1000 C.2     1  UNL1        0.2414
      9 O         139.9034  138.2964  157.6390 O.2     1  UNL1       -0.2734
     10 C         140.6866  139.0767  160.4280 C.3     1  UNL1        0.1150
     11 C         141.0782  139.4668  161.8224 C.3     1  UNL1        0.1165
     12 H         140.9323  140.3682  164.3087 H       1  UNL1        0.1564
     13 C         142.2529  140.6371  166.0058 C.ar    1  UNL1        0.0525
     14 C         142.7555  142.0228  166.2837 C.ar    1  UNL1        0.0156
     15 C         143.1471  142.4129  167.6782 C.ar    1  UNL1        0.0135
     16 C         143.0360  141.4173  168.7946 C.ar    1  UNL1        0.0683
     17 CL        143.4276  141.8074  170.1891 Cl      1  UNL1       -0.0814
     18 C         142.5334  140.0316  168.5167 C.ar    1  UNL1        0.0694
     19 CL        142.4223  139.0361  169.6331 Cl      1  UNL1       -0.0813
     20 C         142.1418  139.6416  167.1222 C.ar    1  UNL1        0.0270
     21 C         142.3426  137.5371  157.1665 C.3     1  UNL1        0.1479
     22 C         142.5382  136.0518  157.0903 C.3     1  UNL1        0.0974
     23 N         143.5620  135.4771  156.1568 N.3     1  UNL1       -0.2713
     24 C         144.3904  136.3876  155.2995 C.3     1  UNL1        0.0894
     25 C         144.1948  137.8729  155.3758 C.3     1  UNL1        0.0865
     26 N         143.1709  138.4476  156.3093 N.3     1  UNL1       -0.2890
     27 H         142.5203  138.9860  155.7373 H       1  UNL1        0.1237
     28 C         143.7576  133.9918  156.0806 C.3     1  UNL1        0.0577
     29 C         143.5784  132.6938  155.3506 C.3     1  UNL1        0.0173
     30 C         144.2755  132.7174  156.6785 C.3     1  UNL1        0.0173
@<TRIPOS>BOND
     1     1     2    2
     2     2     3   am
     3     3    13    1
     4    13    14   ar
     5    14    15   ar
     6    15    16   ar
     7    16    17    1
     8    16    18   ar
     9    18    19    1
    10    18    20   ar
    11     2     4   am
    12     4     5    1
    13     5     6    1
    14     6     7    1
    15     7     8   am
    16     8     9    2
    17    21     8    1
    18    21    22    1
    19    22    23    1
    20    23    28    1
    21    28    29    1
    22    29    30    1
    23    23    24    1
    24    24    25    1
    25    25    26    1
    26     7    10    1
    27    10    11    1
    28    20    13   ar
    29    11     4    1
    30    26    21    1
    31    30    28    1
    32     3    12    1
    33    26    27    1
@<TRIPOS>MOLECULE
*****
 30 33 0 0 0
SMALL
GASTEIGER

@<TRIPOS>ATOM
      1 O         140.5935  138.8932  164.9308 O.2     1  UNL1       -0.2522
      2 C         141.7730  139.6338  164.3738 C.2     1  UNL1        0.3078
      3 N         142.6062  140.5004  165.2708 N.am    1  UNL1       -0.2681
      4 N         142.1193  139.5077  162.9197 N.am    1  UNL1       -0.2605
      5 C         141.2860  138.6411  162.0227 C.3     1  UNL1        0.1165
      6 C         141.6323  138.5150  160.5687 C.3     1  UNL1        0.1150
      7 N         142.8119  139.2556  160.0117 N.am    1  UNL1       -0.2749
      8 C         143.1581  139.1295  158.5577 C.2     1  UNL1        0.2414
      9 O         144.3377  139.8701  158.0007 O.2     1  UNL1       -0.2734
     10 C         143.6451  140.1222  160.9087 C.3     1  UNL1        0.1150
     11 C         143.2988  140.2483  162.3627 C.3     1  UNL1        0.1165
     12 H         143.3804  140.9865  164.9052 H       1  UNL1        0.1564
     13 C         142.2599  140.6265  166.7249 C.ar    1  UNL1        0.0525
     14 C         142.6466  139.5407  167.6848 C.ar    1  UNL1        0.0156
     15 C         142.3003  139.6668  169.1388 C.ar    1  UNL1        0.0135
     16 C         141.5674  140.8787  169.6329 C.ar    1  UNL1        0.0683
     17 CL        141.2211  141.0048  171.0869 Cl      1  UNL1       -0.0814
     18 C         141.1808  141.9645  168.6729 C.ar    1  UNL1        0.0694
     19 CL        140.4479  143.1765  169.1670 Cl      1  UNL1       -0.0813
     20 C         141.5271  141.8384  167.2189 C.ar    1  UNL1        0.0270
     21 C         142.3249  138.2629  157.6607 C.3     1  UNL1        0.1479
     22 C         142.7725  136.8680  157.3384 C.3     1  UNL1        0.0974
     23 N         141.9393  136.0014  156.4414 N.3     1  UNL1       -0.2713
     24 C         140.6584  136.5296  155.8666 C.3     1  UNL1        0.0894
     25 C         140.2107  137.9245  156.1889 C.3     1  UNL1        0.0865
     26 N         141.0441  138.7912  157.0860 N.3     1  UNL1       -0.2890
     27 H         140.4529  139.0524  157.8751 H       1  UNL1        0.1237
     28 C         142.3869  134.6065  156.1191 C.3     1  UNL1        0.0577
     29 C         142.0587  133.1785  155.7977 C.3     1  UNL1        0.0173
     30 C         143.4903  133.6184  155.8822 C.3     1  UNL1        0.0173
@<TRIPOS>BOND
     1     1     2    2
     2     2     3   am
     3     3    13    1
     4    13    14   ar
     5    14    15   ar
     6    15    16   ar
     7    16    17    1
     8    16    18   ar
     9    18    19    1
    10    18    20   ar
    11     2     4   am
    12     4     5    1
    13     5     6    1
    14     6     7    1
    15     7     8   am
    16     8     9    2
    17    21     8    1
    18    21    22    1
    19    22    23    1
    20    23    28    1
    21    28    29    1
    22    29    30    1
    23    23    24    1
    24    24    25    1
    25    25    26    1
    26     7    10    1
    27    10    11    1
    28    20    13   ar
    29    11     4    1
    30    26    21    1
    31    30    28    1
    32     3    12    1
    33    26    27    1
@<TRIPOS>MOLECULE
*****
 30 33 0 0 0
SMALL
GASTEIGER

@<TRIPOS>ATOM
      1 O         143.4545  140.2852  165.0145 O.2     1  UNL1       -0.2522
      2 C         142.9303  141.6032  164.5266 C.2     1  UNL1        0.3078
      3 N         142.2766  142.5522  165.4868 N.am    1  UNL1       -0.2681
      4 N         143.0599  141.9723  163.0785 N.am    1  UNL1       -0.2605
      5 C         143.7136  141.0233  162.1183 C.3     1  UNL1        0.1165
      6 C         143.8432  141.3924  160.6702 C.3     1  UNL1        0.1150
      7 N         143.3190  142.7104  160.1823 N.am    1  UNL1       -0.2749
      8 C         143.4485  143.0795  158.7342 C.2     1  UNL1        0.2414
      9 O         142.9243  144.3975  158.2463 O.2     1  UNL1       -0.2734
     10 C         142.6652  143.6594  161.1425 C.3     1  UNL1        0.1150
     11 C         142.5357  143.2903  162.5906 C.3     1  UNL1        0.1165
     12 H         141.9326  143.4173  165.1666 H       1  UNL1        0.1564
     13 C         142.1470  142.1832  166.9350 C.ar    1  UNL1        0.0525
     14 C         143.3124  142.3632  167.8620 C.ar    1  UNL1        0.0156
     15 C         143.1828  141.9942  169.3101 C.ar    1  UNL1        0.0135
     16 C         141.8879  141.4451  169.8312 C.ar    1  UNL1        0.0683
     17 CL        141.7583  141.0760  171.2793 Cl      1  UNL1       -0.0814
     18 C         140.7225  141.2650  168.9041 C.ar    1  UNL1        0.0694
     19 CL        139.4275  140.7160  169.4252 Cl      1  UNL1       -0.0813
     20 C         140.8521  141.6341  167.4561 C.ar    1  UNL1        0.0270
     21 C         144.1022  142.1305  157.7739 C.3     1  UNL1        0.1479
     22 C         145.4414  142.4629  157.1855 C.3     1  UNL1        0.0974
     23 N         146.0951  141.5139  156.2253 N.3     1  UNL1       -0.2713
     24 C         145.4097  140.2325  155.8535 C.3     1  UNL1        0.0894
     25 C         144.0706  139.9001  156.4419 C.3     1  UNL1        0.0865
     26 N         143.4169  140.8491  157.4022 N.3     1  UNL1       -0.2890
     27 H         143.2662  140.3334  158.2692 H       1  UNL1        0.1237
     28 C         147.4342  141.8464  155.6369 C.3     1  UNL1        0.0577
     29 C         148.2561  142.4828  154.5555 C.3     1  UNL1        0.0173
     30 C         148.9317  141.7856  155.6990 C.3     1  UNL1        0.0173
@<TRIPOS>BOND
     1     1     2    2
     2     2     3   am
     3     3    13    1
     4    13    14   ar
     5    14    15   ar
     6    15    16   ar
     7    16    17    1
     8    16    18   ar
     9    18    19    1
    10    18    20   ar
    11     2     4   am
    12     4     5    1
    13     5     6    1
    14     6     7    1
    15     7     8   am
    16     8     9    2
    17    21     8    1
    18    21    22    1
    19    22    23    1
    20    23    28    1
    21    28    29    1
    22    29    30    1
    23    23    24    1
    24    24    25    1
    25    25    26    1
    26     7    10    1
    27    10    11    1
    28    20    13   ar
    29    11     4    1
    30    26    21    1
    31    30    28    1
    32     3    12    1
    33    26    27    1
@<TRIPOS>MOLECULE
*****
 30 33 0 0 0
SMALL
GASTEIGER

@<TRIPOS>ATOM
      1 O         141.8945  145.8675  158.9138 O.2     1  UNL1       -0.2522
      2 C         140.7500  144.8996  158.9710 C.2     1  UNL1        0.3078
      3 N         139.8273  144.7590  157.7968 N.am    1  UNL1       -0.2681
      4 N         140.5283  144.0723  160.2024 N.am    1  UNL1       -0.2605
      5 C         141.4510  144.2129  161.3766 C.3     1  UNL1        0.1165
      6 C         141.2291  143.3856  162.6080 C.3     1  UNL1        0.1150
      7 N         140.0846  142.4177  162.6652 N.am    1  UNL1       -0.2749
      8 C         139.8629  141.5904  163.8966 C.2     1  UNL1        0.2414
      9 O         138.7183  140.6225  163.9538 O.2     1  UNL1       -0.2734
     10 C         139.1619  142.2771  161.4910 C.3     1  UNL1        0.1150
     11 C         139.3837  143.1044  160.2596 C.3     1  UNL1        0.1165
     12 H         139.0762  144.1237  157.8343 H       1  UNL1        0.1564
     13 C         140.0491  145.5863  156.5653 C.ar    1  UNL1        0.0525
     14 C         140.9222  145.0684  155.4610 C.ar    1  UNL1        0.0156
     15 C         141.1439  145.8957  154.2296 C.ar    1  UNL1        0.0135
     16 C         140.4926  147.2410  154.1025 C.ar    1  UNL1        0.0683
     17 CL        140.7144  148.0683  152.8711 Cl      1  UNL1       -0.0814
     18 C         139.6195  147.7589  155.2068 C.ar    1  UNL1        0.0694
     19 CL        138.9682  149.1041  155.0797 Cl      1  UNL1       -0.0813
     20 C         139.3978  146.9315  156.4382 C.ar    1  UNL1        0.0270
     21 C         140.7856  141.7310  165.0708 C.3     1  UNL1        0.1479
     22 C         140.2599  142.2373  166.3813 C.3     1  UNL1        0.0974
     23 N         141.1827  142.3779  167.5555 N.3     1  UNL1       -0.2713
     24 C         142.6311  142.0122  167.4193 C.3     1  UNL1        0.0894
     25 C         143.1567  141.5059  166.1088 C.3     1  UNL1        0.0865
     26 N         142.2339  141.3653  164.9346 N.3     1  UNL1       -0.2890
     27 H         142.2649  140.3859  164.6513 H       1  UNL1        0.1237
     28 C         140.6570  142.8842  168.8660 C.3     1  UNL1        0.0577
     29 C         140.4739  144.0043  169.8467 C.3     1  UNL1        0.0173
     30 C         139.9298  142.6409  170.1552 C.3     1  UNL1        0.0173
@<TRIPOS>BOND
     1     1     2    2
     2     2     3   am
     3     3    13    1
     4    13    14   ar
     5    14    15   ar
     6    15    16   ar
     7    16    17    1
     8    16    18   ar
     9    18    19    1
    10    18    20   ar
    11     2     4   am
    12     4     5    1
    13     5     6    1
    14     6     7    1
    15     7     8   am
    16     8     9    2
    17    21     8    1
    18    21    22    1
    19    22    23    1
    20    23    28    1
    21    28    29    1
    22    29    30    1
    23    23    24    1
    24    24    25    1
    25    25    26    1
    26     7    10    1
    27    10    11    1
    28    20    13   ar
    29    11     4    1
    30    26    21    1
    31    30    28    1
    32     3    12    1
    33    26    27    1
@<TRIPOS>MOLECULE
*****
 30 33 0 0 0
SMALL
GASTEIGER

@<TRIPOS>ATOM
      1 O         143.5618  140.4571  165.0717 O.2     1  UNL1       -0.2522
      2 C         142.8935  141.7080  164.5831 C.2     1  UNL1        0.3078
      3 N         142.0994  142.5543  165.5335 N.am    1  UNL1       -0.2681
      4 N         143.0194  142.1126  163.1442 N.am    1  UNL1       -0.2605
      5 C         143.8135  141.2663  162.1938 C.3     1  UNL1        0.1165
      6 C         143.9393  141.6709  160.7550 C.3     1  UNL1        0.1150
      7 N         143.2710  142.9218  160.2664 N.am    1  UNL1       -0.2749
      8 C         143.3968  143.3264  158.8274 C.2     1  UNL1        0.2414
      9 O         142.7285  144.5773  158.3389 O.2     1  UNL1       -0.2734
     10 C         142.4769  143.7681  161.2167 C.3     1  UNL1        0.1150
     11 C         142.3511  143.3635  162.6556 C.3     1  UNL1        0.1165
     12 H         141.6608  143.3753  165.2128 H       1  UNL1        0.1564
     13 C         141.9736  142.1497  166.9724 C.ar    1  UNL1        0.0525
     14 C         143.1263  142.3493  167.9112 C.ar    1  UNL1        0.0156
     15 C         143.0004  141.9448  169.3501 C.ar    1  UNL1        0.0135
     16 C         141.7218  141.3405  169.8502 C.ar    1  UNL1        0.0683
     17 CL        141.5959  140.9359  171.2892 Cl      1  UNL1       -0.0814
     18 C         140.5691  141.1409  168.9114 C.ar    1  UNL1        0.0694
     19 CL        139.2905  140.5367  169.4115 Cl      1  UNL1       -0.0813
     20 C         140.6950  141.5455  167.4725 C.ar    1  UNL1        0.0270
     21 C         144.1909  142.4801  157.8771 C.3     1  UNL1        0.1479
     22 C         143.5726  141.2586  157.2643 C.3     1  UNL1        0.0974
     23 N         144.3667  140.4124  156.3140 N.3     1  UNL1       -0.2713
     24 C         145.7793  140.7876  155.9764 C.3     1  UNL1        0.0894
     25 C         146.3977  142.0091  156.5892 C.3     1  UNL1        0.0865
     26 N         145.6035  142.8554  157.5396 N.3     1  UNL1       -0.2890
     27 H         145.5717  143.7941  157.1419 H       1  UNL1        0.1237
     28 C         143.7483  139.1909  155.7012 C.3     1  UNL1        0.0577
     29 C         142.8332  138.5662  154.6901 C.3     1  UNL1        0.0173
     30 C         143.5924  137.6999  155.6509 C.3     1  UNL1        0.0173
@<TRIPOS>BOND
     1     1     2    2
     2     2     3   am
     3     3    13    1
     4    13    14   ar
     5    14    15   ar
     6    15    16   ar
     7    16    17    1
     8    16    18   ar
     9    18    19    1
    10    18    20   ar
    11     2     4   am
    12     4     5    1
    13     5     6    1
    14     6     7    1
    15     7     8   am
    16     8     9    2
    17    21     8    1
    18    21    22    1
    19    22    23    1
    20    23    28    1
    21    28    29    1
    22    29    30    1
    23    23    24    1
    24    24    25    1
    25    25    26    1
    26     7    10    1
    27    10    11    1
    28    20    13   ar
    29    11     4    1
    30    26    21    1
    31    30    28    1
    32     3    12    1
    33    26    27    1
@<TRIPOS>MOLECULE
*****
 30 33 0 0 0
SMALL
GASTEIGER

@<TRIPOS>ATOM
      1 O         141.5829  138.4627  164.0915 O.2     1  UNL1       -0.2522
      2 C         140.4788  139.0242  163.2456 C.2     1  UNL1        0.3078
      3 N         139.3372  139.7534  163.8898 N.am    1  UNL1       -0.2681
      4 N         140.5162  138.8564  161.7554 N.am    1  UNL1       -0.2605
      5 C         141.6577  138.1272  161.1112 C.3     1  UNL1        0.1165
      6 C         141.6951  137.9595  159.6211 C.3     1  UNL1        0.1150
      7 N         140.5909  138.5210  158.7753 N.am    1  UNL1       -0.2749
      8 C         140.6283  138.3533  157.2851 C.2     1  UNL1        0.2414
      9 O         139.5242  138.9148  156.4392 O.2     1  UNL1       -0.2734
     10 C         139.4494  139.2503  159.4195 C.3     1  UNL1        0.1150
     11 C         139.4120  139.4180  160.9096 C.3     1  UNL1        0.1165
     12 H         138.6125  140.1219  163.3346 H       1  UNL1        0.1564
     13 C         139.2998  139.9211  165.3800 C.ar    1  UNL1        0.0525
     14 C         138.5007  138.9711  166.2219 C.ar    1  UNL1        0.0156
     15 C         138.4633  139.1388  167.7119 C.ar    1  UNL1        0.0135
     16 C         139.2250  140.2567  168.3602 C.ar    1  UNL1        0.0683
     17 CL        139.1876  140.4244  169.8504 Cl      1  UNL1       -0.0814
     18 C         140.0241  141.2068  167.5183 C.ar    1  UNL1        0.0694
     19 CL        140.7858  142.3246  168.1666 Cl      1  UNL1       -0.0813
     20 C         140.0615  141.0390  166.0283 C.ar    1  UNL1        0.0270
     21 C         141.7699  137.6241  156.6409 C.3     1  UNL1        0.1479
     22 C         141.6881  136.1415  156.4277 C.3     1  UNL1        0.0974
     23 N         142.8296  135.4123  155.7835 N.3     1  UNL1       -0.2713
     24 C         144.0530  136.1656  155.3524 C.3     1  UNL1        0.0894
     25 C         144.1349  137.6481  155.5655 C.3     1  UNL1        0.0865
     26 N         142.9932  138.3774  156.2098 N.3     1  UNL1       -0.2890
     27 H         142.6836  139.0859  155.5446 H       1  UNL1        0.1237
     28 C         142.7478  133.9298  155.5704 C.3     1  UNL1        0.0577
     29 C         143.3499  132.6563  155.0549 C.3     1  UNL1        0.0173
     30 C         142.0040  132.6355  155.7168 C.3     1  UNL1        0.0173
@<TRIPOS>BOND
     1     1     2    2
     2     2     3   am
     3     3    13    1
     4    13    14   ar
     5    14    15   ar
     6    15    16   ar
     7    16    17    1
     8    16    18   ar
     9    18    19    1
    10    18    20   ar
    11     2     4   am
    12     4     5    1
    13     5     6    1
    14     6     7    1
    15     7     8   am
    16     8     9    2
    17    21     8    1
    18    21    22    1
    19    22    23    1
    20    23    28    1
    21    28    29    1
    22    29    30    1
    23    23    24    1
    24    24    25    1
    25    25    26    1
    26     7    10    1
    27    10    11    1
    28    20    13   ar
    29    11     4    1
    30    26    21    1
    31    30    28    1
    32     3    12    1
    33    26    27    1
@<TRIPOS>MOLECULE
*****
 30 33 0 0 0
SMALL
GASTEIGER

@<TRIPOS>ATOM
      1 O         138.0616  143.2733  160.6776 O.2     1  UNL1       -0.2522
      2 C         138.9404  142.0680  160.5194 C.2     1  UNL1        0.3078
      3 N         139.2545  141.5434  159.1496 N.am    1  UNL1       -0.2681
      4 N         139.5051  141.3872  161.7309 N.am    1  UNL1       -0.2605
      5 C         139.1910  141.9117  163.1006 C.3     1  UNL1        0.1165
      6 C         139.7557  141.2310  164.3121 C.3     1  UNL1        0.1150
      7 N         140.6344  140.0257  164.1538 N.am    1  UNL1       -0.2749
      8 C         141.1991  139.3449  165.3653 C.2     1  UNL1        0.2414
      9 O         142.0779  138.1396  165.2071 O.2     1  UNL1       -0.2734
     10 C         140.9485  139.5011  162.7841 C.3     1  UNL1        0.1150
     11 C         140.3838  140.1819  161.5726 C.3     1  UNL1        0.1165
     12 H         139.8312  140.7524  159.0458 H       1  UNL1        0.1564
     13 C         138.6898  142.2242  157.9381 C.ar    1  UNL1        0.0525
     14 C         139.3685  143.4375  157.3749 C.ar    1  UNL1        0.0156
     15 C         138.8038  144.1181  156.1634 C.ar    1  UNL1        0.0135
     16 C         137.5604  143.5856  155.5151 C.ar    1  UNL1        0.0683
     17 CL        136.9957  144.2664  154.3036 Cl      1  UNL1       -0.0814
     18 C         136.8816  142.3724  156.0784 C.ar    1  UNL1        0.0694
     19 CL        135.6382  141.8398  155.4301 Cl      1  UNL1       -0.0813
     20 C         137.4463  141.6917  157.2899 C.ar    1  UNL1        0.0270
     21 C         140.8850  139.8694  166.7351 C.3     1  UNL1        0.1479
     22 C         141.8866  140.7177  167.4612 C.3     1  UNL1        0.0974
     23 N         141.5725  141.2422  168.8309 N.3     1  UNL1       -0.2713
     24 C         140.2568  140.9185  169.4746 C.3     1  UNL1        0.0894
     25 C         139.2553  140.0702  168.7484 C.3     1  UNL1        0.0865
     26 N         139.5694  139.5457  167.3786 N.3     1  UNL1       -0.2890
     27 H         138.8424  139.8965  166.7551 H       1  UNL1        0.1237
     28 C         142.5741  142.0905  169.5571 C.3     1  UNL1        0.0577
     29 C         143.9998  142.4461  169.8586 C.3     1  UNL1        0.0173
     30 C         142.8831  143.2041  170.5132 C.3     1  UNL1        0.0173
@<TRIPOS>BOND
     1     1     2    2
     2     2     3   am
     3     3    13    1
     4    13    14   ar
     5    14    15   ar
     6    15    16   ar
     7    16    17    1
     8    16    18   ar
     9    18    19    1
    10    18    20   ar
    11     2     4   am
    12     4     5    1
    13     5     6    1
    14     6     7    1
    15     7     8   am
    16     8     9    2
    17    21     8    1
    18    21    22    1
    19    22    23    1
    20    23    28    1
    21    28    29    1
    22    29    30    1
    23    23    24    1
    24    24    25    1
    25    25    26    1
    26     7    10    1
    27    10    11    1
    28    20    13   ar
    29    11     4    1
    30    26    21    1
    31    30    28    1
    32     3    12    1
    33    26    27    1
